# File generated by Flopy version 3.9.5 on 11/03/2025 at 10:10:51.
BEGIN options
END options

BEGIN timing
  TDIS6  sim_test.tdis
END timing

BEGIN models
  gwf6  test.nam  test
END models

BEGIN exchanges
END exchanges

BEGIN solutiongroup  1
  ims6  sim_test.ims  test
END solutiongroup  1

