# File generated by Flopy version 3.9.3 on 09/16/2025 at 10:13:02.
BEGIN options
  COMPLEXITY  moderate
END options

BEGIN linear
  INNER_DVCLOSE  1.00000000E-05
END linear

