# File generated by Flopy version 3.9.3 on 07/23/2025 at 15:52:21.
BEGIN options
  COMPLEXITY  moderate
END options

BEGIN linear
  INNER_DVCLOSE  1.00000000E-05
END linear

