# File generated by Flopy version 3.9.2 on 03/11/2025 at 14:18:10.
BEGIN options
  COMPLEXITY  moderate
END options

BEGIN linear
  INNER_DVCLOSE  1.00000000E-05
END linear

