# File generated by Flopy version 3.9.5 on 12/11/2025 at 15:17:35.
BEGIN options
  COMPLEXITY  moderate
END options

BEGIN linear
  INNER_DVCLOSE  1.00000000E-05
END linear

