# File generated by Flopy version 3.9.2 on 03/25/2025 at 16:04:43.
BEGIN options
END options

BEGIN griddata
  strt
    CONSTANT       1.00000000
END griddata

