# File generated by Flopy version 3.9.1 on 04/22/2025 at 12:10:33.
BEGIN options
  auxiliary  TEMPERATURE
  SAVE_FLOWS
END options

BEGIN dimensions
  MAXBOUND  192
END dimensions

BEGIN period  1
  1 577 3.00000000E-01 10
  1 553 3.00000000E-01 10
  1 529 3.00000000E-01 10
  1 505 3.00000000E-01 10
  1 481 3.00000000E-01 10
  1 430 3.00000000E-01 10
  1 319 3.00000000E-01 10
  1 202 3.00000000E-01 10
  1 169 3.00000000E-01 10
  1 145 3.00000000E-01 10
  1 121 3.00000000E-01 10
  1 97 3.00000000E-01 10
  1 73 3.00000000E-01 10
  1 49 3.00000000E-01 10
  1 25 3.00000000E-01 10
  1 1 3.00000000E-01 10
  2 577 3.00000000E-01 10
  2 553 3.00000000E-01 10
  2 529 3.00000000E-01 10
  2 505 3.00000000E-01 10
  2 481 3.00000000E-01 10
  2 430 3.00000000E-01 10
  2 319 3.00000000E-01 10
  2 202 3.00000000E-01 10
  2 169 3.00000000E-01 10
  2 145 3.00000000E-01 10
  2 121 3.00000000E-01 10
  2 97 3.00000000E-01 10
  2 73 3.00000000E-01 10
  2 49 3.00000000E-01 10
  2 25 3.00000000E-01 10
  2 1 3.00000000E-01 10
  3 577 3.00000000E-01 10
  3 553 3.00000000E-01 10
  3 529 3.00000000E-01 10
  3 505 3.00000000E-01 10
  3 481 3.00000000E-01 10
  3 430 3.00000000E-01 10
  3 319 3.00000000E-01 10
  3 202 3.00000000E-01 10
  3 169 3.00000000E-01 10
  3 145 3.00000000E-01 10
  3 121 3.00000000E-01 10
  3 97 3.00000000E-01 10
  3 73 3.00000000E-01 10
  3 49 3.00000000E-01 10
  3 25 3.00000000E-01 10
  3 1 3.00000000E-01 10
  4 577 3.00000000E-01 10
  4 553 3.00000000E-01 10
  4 529 3.00000000E-01 10
  4 505 3.00000000E-01 10
  4 481 3.00000000E-01 10
  4 430 3.00000000E-01 10
  4 319 3.00000000E-01 10
  4 202 3.00000000E-01 10
  4 169 3.00000000E-01 10
  4 145 3.00000000E-01 10
  4 121 3.00000000E-01 10
  4 97 3.00000000E-01 10
  4 73 3.00000000E-01 10
  4 49 3.00000000E-01 10
  4 25 3.00000000E-01 10
  4 1 3.00000000E-01 10
  5 577 3.00000000E-01 10
  5 553 3.00000000E-01 10
  5 529 3.00000000E-01 10
  5 505 3.00000000E-01 10
  5 481 3.00000000E-01 10
  5 430 3.00000000E-01 10
  5 319 3.00000000E-01 10
  5 202 3.00000000E-01 10
  5 169 3.00000000E-01 10
  5 145 3.00000000E-01 10
  5 121 3.00000000E-01 10
  5 97 3.00000000E-01 10
  5 73 3.00000000E-01 10
  5 49 3.00000000E-01 10
  5 25 3.00000000E-01 10
  5 1 3.00000000E-01 10
  6 577 3.00000000E-01 10
  6 553 3.00000000E-01 10
  6 529 3.00000000E-01 10
  6 505 3.00000000E-01 10
  6 481 3.00000000E-01 10
  6 430 3.00000000E-01 10
  6 319 3.00000000E-01 10
  6 202 3.00000000E-01 10
  6 169 3.00000000E-01 10
  6 145 3.00000000E-01 10
  6 121 3.00000000E-01 10
  6 97 3.00000000E-01 10
  6 73 3.00000000E-01 10
  6 49 3.00000000E-01 10
  6 25 3.00000000E-01 10
  6 1 3.00000000E-01 10
  1 600 0.00000000E+00 10
  1 576 0.00000000E+00 10
  1 552 0.00000000E+00 10
  1 528 0.00000000E+00 10
  1 504 0.00000000E+00 10
  1 480 0.00000000E+00 10
  1 429 0.00000000E+00 10
  1 318 0.00000000E+00 10
  1 201 0.00000000E+00 10
  1 168 0.00000000E+00 10
  1 144 0.00000000E+00 10
  1 120 0.00000000E+00 10
  1 96 0.00000000E+00 10
  1 72 0.00000000E+00 10
  1 48 0.00000000E+00 10
  1 24 0.00000000E+00 10
  2 600 0.00000000E+00 10
  2 576 0.00000000E+00 10
  2 552 0.00000000E+00 10
  2 528 0.00000000E+00 10
  2 504 0.00000000E+00 10
  2 480 0.00000000E+00 10
  2 429 0.00000000E+00 10
  2 318 0.00000000E+00 10
  2 201 0.00000000E+00 10
  2 168 0.00000000E+00 10
  2 144 0.00000000E+00 10
  2 120 0.00000000E+00 10
  2 96 0.00000000E+00 10
  2 72 0.00000000E+00 10
  2 48 0.00000000E+00 10
  2 24 0.00000000E+00 10
  3 600 0.00000000E+00 10
  3 576 0.00000000E+00 10
  3 552 0.00000000E+00 10
  3 528 0.00000000E+00 10
  3 504 0.00000000E+00 10
  3 480 0.00000000E+00 10
  3 429 0.00000000E+00 10
  3 318 0.00000000E+00 10
  3 201 0.00000000E+00 10
  3 168 0.00000000E+00 10
  3 144 0.00000000E+00 10
  3 120 0.00000000E+00 10
  3 96 0.00000000E+00 10
  3 72 0.00000000E+00 10
  3 48 0.00000000E+00 10
  3 24 0.00000000E+00 10
  4 600 0.00000000E+00 10
  4 576 0.00000000E+00 10
  4 552 0.00000000E+00 10
  4 528 0.00000000E+00 10
  4 504 0.00000000E+00 10
  4 480 0.00000000E+00 10
  4 429 0.00000000E+00 10
  4 318 0.00000000E+00 10
  4 201 0.00000000E+00 10
  4 168 0.00000000E+00 10
  4 144 0.00000000E+00 10
  4 120 0.00000000E+00 10
  4 96 0.00000000E+00 10
  4 72 0.00000000E+00 10
  4 48 0.00000000E+00 10
  4 24 0.00000000E+00 10
  5 600 0.00000000E+00 10
  5 576 0.00000000E+00 10
  5 552 0.00000000E+00 10
  5 528 0.00000000E+00 10
  5 504 0.00000000E+00 10
  5 480 0.00000000E+00 10
  5 429 0.00000000E+00 10
  5 318 0.00000000E+00 10
  5 201 0.00000000E+00 10
  5 168 0.00000000E+00 10
  5 144 0.00000000E+00 10
  5 120 0.00000000E+00 10
  5 96 0.00000000E+00 10
  5 72 0.00000000E+00 10
  5 48 0.00000000E+00 10
  5 24 0.00000000E+00 10
  6 600 0.00000000E+00 10
  6 576 0.00000000E+00 10
  6 552 0.00000000E+00 10
  6 528 0.00000000E+00 10
  6 504 0.00000000E+00 10
  6 480 0.00000000E+00 10
  6 429 0.00000000E+00 10
  6 318 0.00000000E+00 10
  6 201 0.00000000E+00 10
  6 168 0.00000000E+00 10
  6 144 0.00000000E+00 10
  6 120 0.00000000E+00 10
  6 96 0.00000000E+00 10
  6 72 0.00000000E+00 10
  6 48 0.00000000E+00 10
  6 24 0.00000000E+00 10
END period  1

