# File generated by Flopy version 3.9.3 on 10/06/2025 at 15:28:58.
BEGIN options
  auxiliary  TEMPERATURE
  SAVE_FLOWS
END options

BEGIN dimensions
  MAXBOUND  1
END dimensions

BEGIN period  1
  4 226 5.00000000E-05 7
END period  1

