# File generated by Flopy version 3.9.3 on 10/06/2025 at 15:28:58.
BEGIN options
END options

BEGIN packages
  OC6  test.oc  oc
  IC6  test.ic  ic
  DISV6  test.disv  disv
  NPF6  test.npf  npf
  CHD6  test.chd  chd
  WEL6  test.wel  wel-inj
END packages

