# File generated by Flopy version 3.9.2 on 03/25/2025 at 16:04:43.
BEGIN options
  auxiliary  TEMPERATURE
  SAVE_FLOWS
END options

BEGIN dimensions
  MAXBOUND  1
END dimensions

BEGIN period  1
  3 26 51 1.00000000E-03 7
END period  1

