# File generated by Flopy version 3.9.5 on 12/11/2025 at 15:17:35.
BEGIN options
  auxiliary  TEMPERATURE
  SAVE_FLOWS
END options

BEGIN dimensions
  MAXBOUND  1
END dimensions

BEGIN period  1
  3 26 51 1.00000000E-03 7
END period  1

