# File generated by Flopy version 3.9.3 on 10/06/2025 at 15:27:45.
BEGIN options
  SAVE_FLOWS
END options

BEGIN dimensions
  MAXBOUND  1
END dimensions

BEGIN period  1
  3 26 34 -1.00000000E-03
END period  1

