# File generated by Flopy version 3.9.1 on 06/09/2025 at 12:54:48.
BEGIN options
  auxiliary  TEMPERATURE
  SAVE_FLOWS
END options

BEGIN dimensions
  MAXBOUND  1
END dimensions

BEGIN period  1
  4 226 5.00000000E-05 7
END period  1

