# File generated by Flopy version 3.9.3 on 09/16/2025 at 10:13:02.
BEGIN options
  SAVE_FLOWS
END options

BEGIN dimensions
  MAXBOUND  1
END dimensions

BEGIN period  1
  3 26 34 -1.00000000E-03
END period  1

