# File generated by Flopy version 3.9.5 on 11/03/2025 at 10:10:52.
BEGIN options
END options

BEGIN griddata
  strt
    CONSTANT       1.00000000
END griddata

