# File generated by Flopy version 3.9.5 on 11/03/2025 at 10:10:52.
BEGIN options
  SAVE_FLOWS
END options

BEGIN dimensions
  MAXBOUND  1
END dimensions

BEGIN period  1
  3 26 34 -1.00000000E-03
END period  1

