# File generated by Flopy version 3.9.1 on 04/22/2025 at 12:10:33.
BEGIN options
  SAVE_FLOWS
  SAVE_SPECIFIC_DISCHARGE
  SAVE_SATURATION
END options

BEGIN griddata
  icelltype
    CONSTANT  0
  k  LAYERED
    INTERNAL  FACTOR  1.0
      1.87707544E-05  6.36966990E-10  1.20700329E-09  1.11840586E-06  8.41265471E-05  8.93106240E-05  3.65380624E-05  4.88250282E-06  5.08602494E-06  5.26418821E-05  5.24960310E-04  4.15290456E-04  1.02996972E-04  3.78091377E-05  5.13642956E-05  1.19864010E-04  1.47633182E-04  8.04859708E-05  2.00625535E-05  1.55289532E-05
      1.92726166E-05  7.19864658E-08  2.09052044E-07  1.87902540E-06  1.73183754E-04  6.08369542E-05  1.86751172E-05  2.42743962E-05  8.86821136E-05  1.75331410E-05  4.00902449E-06  3.25308364E-07  1.57099022E-07  2.56836119E-06  2.40160080E-04  2.49113190E-04  8.02779648E-05  2.61219849E-05  2.64926276E-05  4.60228454E-05
      4.37117095E-05  3.32628879E-05  7.12410059E-06  3.49022023E-05  3.68145812E-05  1.92037752E-06  8.33998219E-05  2.96455288E-05  1.62848527E-04  8.36371450E-05  1.91963654E-05  3.62178966E-05  4.04969781E-05  8.60675195E-06  2.59519790E-07  4.33151758E-08  5.25323928E-08  5.84083936E-08  8.51350931E-05  1.21776287E-04
      8.52247463E-05  3.51399630E-05  1.91852260E-05  3.41741098E-05  2.75764271E-07  5.55266295E-07  1.15070751E-07  3.56512673E-06  1.96994060E-05  4.61713531E-05  3.03378804E-04  8.22219934E-05  5.51123048E-05  2.78756267E-05  6.72659897E-06  8.06139794E-06  3.38399618E-05  1.43347480E-05  1.75904373E-07  1.07393346E-07
      6.99477427E-08  9.63300326E-09  2.06305049E-05  7.43213244E-05  6.59738426E-05  5.00093790E-05  3.85351398E-05  5.47983862E-05  4.84461995E-05  3.62696665E-05  1.36554440E-05  1.97644451E-08  7.47849815E-08  2.00084814E-05  2.15023442E-04  9.06795860E-05  1.40231799E-05  1.14414686E-05  2.50708258E-06  3.01312342E-07
      3.51804837E-05  4.08601337E-05  1.96932485E-06  1.50140191E-07  8.42114530E-08  7.41057720E-08  4.76859273E-05  1.51757368E-04  1.12091747E-04  6.20579500E-05  2.78760646E-05  3.42884556E-05  9.92598317E-05  9.07568903E-05  1.06164124E-04  9.75665911E-06  3.34380834E-06  2.71051405E-05  2.08325942E-04  3.49260640E-05
      1.54966911E-05  2.43257909E-05  1.08556420E-05  2.87201128E-06  1.74075021E-05  4.38638052E-05  3.15175732E-07  1.16673230E-06  4.35427230E-06  4.19349455E-05  8.52903612E-05  9.89645168E-05  1.22050856E-04  1.41714735E-05  4.29456588E-06  9.04626760E-06  3.86482466E-05  8.85868881E-05  9.60658170E-05  3.46474254E-05
      8.05417994E-06  6.57124049E-05  1.81534266E-04  1.27220268E-05  4.63340017E-05  4.70040446E-05  2.87960287E-05  1.18531481E-05  8.34451800E-05  1.17882022E-04  1.84890189E-05  8.98040207E-06  3.20864472E-05  5.05753468E-05  4.11492371E-05  8.69145700E-05  1.19306447E-04  2.43423983E-07  5.38800498E-07  1.91903158E-05
      3.23176874E-05  1.32765402E-04  1.08900370E-04  3.53195998E-05  1.14765242E-05  4.67949803E-05  9.17199219E-06  1.52335604E-07  1.08871862E-04  3.69779890E-05  2.49280505E-05  4.07372362E-05  3.58225445E-04  1.59300705E-04  4.16854260E-05  1.91716951E-05  2.74867371E-05  4.82161220E-05  3.40913252E-05  3.84139981E-05
      4.35886745E-05  2.21241966E-05  4.40334393E-05  3.27982891E-05  2.57412264E-05  4.08204736E-05  3.60035096E-05  5.11728048E-05  9.92955791E-05  1.34338931E-04  2.57928378E-05  1.79210257E-05  6.80152205E-05  6.88952926E-05  2.19751282E-04  1.10885137E-04  1.60201882E-05  1.24586425E-05  3.28005108E-05  3.67505338E-08
      1.16310330E-08  1.21686509E-04  5.43007962E-05  2.68787464E-05  6.91078774E-05  6.09777894E-04  1.85643060E-04  3.95619942E-05  2.61741863E-05  3.62628566E-05  3.10969057E-05  3.96201536E-05  4.32863236E-05  3.89355432E-05  6.07065971E-05  1.94458071E-05  4.02136034E-05  4.02446301E-05  1.93636185E-05  4.19884411E-05
      3.20266217E-05  2.18009681E-05  2.12057559E-05  2.79796622E-05  3.01917185E-05  3.99295664E-05  5.27386479E-05  4.60625399E-05  4.85708401E-05  5.36244039E-05  5.25645301E-05  6.73723360E-05  7.18311728E-05  3.77132651E-05  6.63039696E-05  2.54767578E-05  6.13442809E-05  5.07835084E-05  7.17130284E-05  4.96384125E-05
      6.06451414E-05  5.10503708E-05  6.67308949E-05  6.98100486E-05  7.13241391E-05  7.26425444E-05  7.38882007E-05  5.69137677E-05  4.72449849E-05  3.82819466E-05  4.17462273E-05  4.45546636E-05  3.49986576E-05  2.44130795E-05  1.00955930E-04  9.17782611E-05  5.84789730E-05  6.48823176E-05  2.72808555E-05  3.48302961E-05
      5.45299123E-05  5.72069254E-05  3.11364230E-05  3.11366471E-05  1.28304956E-04  1.63311554E-04  8.43428914E-05  1.05178236E-04  3.78899054E-05  5.35528035E-05  1.28024627E-04  1.42112356E-04  6.19028437E-05  1.05775841E-04  9.76015150E-05  5.63225757E-05  1.21098975E-04  9.47033254E-05  9.61004470E-05  9.70819341E-05
      8.39000124E-05  7.42503231E-05  1.02674811E-04  1.01425137E-04  5.86747875E-05  9.84241914E-05  7.57292441E-05  9.18244203E-05  9.42918877E-05  8.61890331E-05  1.05113649E-04  1.16667876E-04  8.68898039E-05  9.05547419E-05  8.68973114E-05  5.86957582E-05  9.92918180E-05  8.41040933E-05  8.33718868E-05  7.91061736E-05
      5.93097855E-05  5.23322207E-05  5.98793024E-05  5.08509252E-05  7.50060206E-05  9.94478213E-05  6.49339209E-05  9.90548133E-05  6.00782750E-05  9.01135281E-05  9.60745469E-05  1.53163473E-04  1.09037361E-04  2.75651517E-05  1.61729979E-05  2.39529056E-05  1.84373395E-07  1.11801899E-07  1.62365997E-07  2.33068478E-05
      3.30799046E-05  1.90919274E-04       0.00100966  3.21883280E-04  5.67010477E-05  2.90749020E-05  3.19480151E-05  2.89034359E-05  2.57274949E-05  2.53202931E-05  1.68413512E-05  2.06781273E-05  1.41654274E-05  5.41258756E-06  1.77548148E-05  1.54081177E-05  1.40941540E-05  4.34275283E-06  3.59568572E-06  2.35363724E-06
      3.26867410E-07  5.72515658E-06  7.21010656E-06  2.78001707E-08  1.88170321E-08  7.24179090E-06  6.90392814E-06  1.61272908E-08  1.84202863E-08  5.77093072E-08  2.84266968E-08  9.39998163E-06  3.48729789E-05  6.67350636E-08  1.17015621E-05  4.73260198E-05  8.50600156E-05  3.57214898E-05  8.49958698E-05  4.84593999E-08
      8.27423263E-06  6.50297965E-08  8.75735963E-06  1.51582544E-05  9.12969696E-05  1.47552786E-05  8.98697424E-05  9.47965674E-05  1.09857740E-04  1.13283528E-04  1.31190572E-04  1.29875843E-04  1.15358986E-04  1.29842658E-04  1.26074016E-04  1.37506241E-04  1.42256500E-04  1.39701599E-04  1.34308138E-04  1.25413585E-04
      1.18699310E-04  1.10487678E-04  9.83136726E-05  1.00581145E-04  8.35638606E-05  1.06469001E-04  8.16619077E-05  7.25213697E-05  7.22419349E-05  6.61541272E-05  5.99886398E-05  1.08467903E-04  8.30659009E-05  1.01356076E-04  9.20091456E-05  6.44161720E-05  5.84048018E-05  7.05784539E-05  6.38417004E-05  6.81348076E-05
      6.49692150E-05  5.81678771E-05  5.60907874E-05  5.43813144E-05  5.02402177E-05  5.74842483E-05  4.95424673E-05  5.48644201E-05  5.45733688E-05  6.17526928E-05  5.99676633E-05  6.08290781E-05  5.48329854E-05  5.58973877E-05  5.70939502E-05  5.44295247E-05  7.56800408E-05  5.09748410E-05  6.28722288E-05  6.71009835E-05
      4.34345132E-05  3.18682949E-05  5.71282750E-05  5.77575614E-05  2.90720598E-05  3.95676183E-05  6.36383655E-05  7.99348394E-05  1.84025560E-04  2.65278633E-08  4.26098049E-07  5.43835294E-06  1.24023187E-04  6.81571500E-04  7.72370046E-04  1.16243124E-04  3.12365144E-05  1.13022660E-05  3.21957119E-06  3.60104912E-07
      1.54715093E-07  2.24260310E-07  3.32468083E-05  2.20321064E-06  6.36229840E-05  1.20756240E-04  9.12081116E-05  1.04689217E-04  1.09170572E-04  9.15648519E-05  9.36497036E-05  8.97666054E-05  9.11184177E-05  8.15928355E-05  7.27738380E-05  8.62420636E-05  8.45654400E-05  1.00253356E-04  1.03946833E-04  7.73191784E-05
      6.50747391E-05  8.49994692E-05  7.21185996E-05  5.63696071E-05  5.54297931E-05  4.57621113E-05  3.80778081E-05  8.88317452E-05  5.20824662E-05  2.52764665E-05  1.43208826E-05  1.48816767E-05  6.44467303E-06  6.45043324E-06  4.20757123E-05  7.93879280E-05  1.91724551E-04  6.81914037E-05  6.55315413E-05  1.66725953E-04
      5.08725513E-06  5.00339929E-07  4.40422720E-07  7.19021223E-06  1.76348542E-04  8.37299535E-04  3.35395046E-04  6.32042043E-05  4.63599193E-06  1.42018140E-06  9.75826153E-07  2.38907225E-06  6.76565038E-05  2.35962776E-04  1.75358692E-04  5.50147871E-05  2.10837184E-05  1.35959228E-05  1.96282719E-05  8.39142309E-05
      1.40518686E-04  4.67298450E-05  1.70418263E-05  3.26285092E-05  1.97585295E-05  4.32715515E-06  3.72306589E-07  5.43633372E-07  8.06039505E-05  6.40847404E-04       0.00112684  1.73226237E-04  1.45995388E-05  1.51892604E-05  1.47770226E-05  2.60005604E-05  1.95687297E-04  5.05956720E-04  3.67886938E-04  4.86802827E-05
      1.17581972E-05  2.04134232E-05  1.09661200E-04  6.09627018E-05  4.86902588E-05  5.54352005E-05  2.24739225E-05  2.58556101E-05  3.97208586E-05  2.46631404E-05  6.45817496E-06  7.21081961E-06  5.04294689E-05  4.30440290E-04       0.00142897  1.01654364E-04  1.79989850E-05  1.12452499E-04  5.39646479E-05  4.75974500E-05
      1.78425738E-04  4.18626945E-04  6.65719077E-04  1.34497045E-04  2.76402832E-05  6.88908067E-05  4.92291782E-04  1.57525685E-04  1.23382525E-04  8.02381361E-05  2.73874139E-05  2.47662306E-05  6.39052405E-05  2.61120544E-05  4.37494449E-05  3.84393522E-05  3.53263337E-05  2.15809033E-04  4.99669226E-04  9.36029885E-05
      5.52012622E-05  2.13265224E-04  5.96895791E-05  3.10823917E-05  1.08414134E-04  3.10663001E-04  9.70951724E-04  1.79074774E-04  3.82644390E-05  1.15829582E-04  7.26413800E-04  3.61160737E-04  9.26495806E-05  2.28016928E-05  1.37775638E-05  2.05111163E-05  9.53623738E-05  2.59151599E-05  5.56333355E-05  8.96369549E-05
      1.67844483E-05  6.18225966E-05  2.90469834E-04  9.40933548E-05  4.84765355E-05  7.86611447E-05  3.85802116E-05  9.33093153E-06  2.10234965E-05  2.16158400E-04  6.21030020E-04  9.02263585E-05  1.69085639E-05  3.14659279E-05  2.97511133E-04  3.72095474E-04  2.84127917E-05  2.18190068E-05  1.57343936E-05  1.95983083E-05
    INTERNAL  FACTOR  1.0
      9.75627375E-10  7.04218595E-10  7.27457995E-09  1.89799531E-08  7.78913847E-08  3.36159214E-07  1.40290184E-07  9.88846266E-08  9.44525327E-04  5.03795610E-05  1.66422312E-06  2.34013374E-08  2.12483117E-05  1.09517502E-05  9.92788295E-06  3.24101424E-08  2.31369934E-09  2.04517259E-09  1.29325570E-07  2.02816649E-08
      8.05888586E-09  1.78666095E-08  2.47197916E-07  4.21769246E-07  1.29055381E-05  6.36651045E-10  5.39105578E-10  8.73756997E-09  1.27927119E-07  9.35616368E-07  1.61048123E-07  1.21066010E-07  9.95741639E-04  2.69467592E-04  6.80748704E-06  2.63365551E-09  1.08661619E-05  5.51886978E-06  3.69952607E-06  1.14978387E-07
      1.43954704E-06  6.96627388E-06  4.00598546E-07  4.52924111E-08  2.55758982E-09  9.60240233E-09  3.99459842E-07  4.88975674E-07  2.06580992E-05  6.15408613E-09  1.63068730E-09  1.43728619E-07  1.76264430E-07  7.59392652E-07  1.76497334E-07  1.07773414E-04  3.76984774E-04  2.46493863E-08  2.92545944E-09  2.17685405E-09
      1.94095161E-08  2.07379632E-06  9.10841382E-07  5.07479557E-05  4.44412319E-05  1.30341380E-04  2.54288505E-07  8.56118430E-09  6.90286156E-09  2.43783137E-08  3.53954606E-07  1.32667604E-06  5.73829970E-06  1.95634932E-06  8.74939575E-09  3.75851661E-07  1.72829695E-06  2.80694097E-07  1.18444010E-07  1.16945012E-07
      6.31443972E-08  1.88716484E-08  4.38166703E-09  3.62255284E-08  1.70151071E-08  3.61952114E-09  1.82203887E-06       0.00741994       0.00110255  3.07861653E-04  6.12637084E-08  3.33356480E-08  2.62174624E-08  2.94563652E-08  2.08810523E-07  1.81580290E-05  1.95638092E-08  3.01759070E-07  4.92199436E-08  1.47250577E-07
      8.80992169E-06  9.17636006E-06  6.29645421E-07  1.19376228E-07  8.37735650E-08  3.96407103E-08  2.64783948E-08  8.57894082E-06  4.85417248E-08  2.46557052E-08  2.34999218E-07       0.00728777       0.00396281  4.80176148E-05  6.44979537E-06  4.87302577E-08  2.18675601E-08  1.60508958E-07  3.47669717E-07  2.25355687E-05
      1.00016999E-06  3.34693238E-07  6.94198568E-08  9.11073383E-08  8.55258464E-06  7.22993927E-05  2.29892533E-07  2.54514442E-08  4.97690302E-08  2.20320465E-07  3.23427194E-06  5.08571222E-05  1.98972749E-07  5.37263944E-08  6.20697726E-08  5.45982299E-07  9.58630961E-04  3.20544533E-05  2.77494412E-05  2.80645142E-07
      6.88321816E-08  1.63398065E-06  2.33384567E-06  1.16099990E-05  3.96971332E-06  3.89350638E-06  4.95969569E-08  1.98928783E-08  6.59329017E-07  8.88934379E-05  7.15624865E-08  1.06355281E-07  1.13429075E-07  9.15706323E-07  6.26935985E-06  1.79546333E-04  3.66122971E-07  1.00291226E-07  1.44634251E-07  5.59691539E-07
      1.21330286E-05  6.15783872E-05  4.98905846E-05  2.40588685E-06  6.00683606E-08  8.17009072E-07  2.52683603E-06  7.06157301E-06  5.52510344E-06  3.54427306E-06  1.68055510E-06  4.55654687E-08  6.57114322E-05  6.42579307E-05  3.61598942E-07  2.69663561E-07  9.48752488E-08  6.46943506E-08  6.20015026E-08  1.70044930E-07
      4.67491867E-07  3.39064641E-06  3.92986670E-07  2.83863016E-06  3.72158122E-06  8.31588995E-06  4.35904006E-06  8.18091906E-06  2.20217195E-05  3.04992916E-07  1.06597179E-07  1.99777854E-07  1.26784307E-05  3.30663740E-05  1.26904935E-04  5.33549913E-05  3.33521423E-06  3.69616558E-08  4.62999173E-08  4.32998218E-08
      1.78482777E-07  1.67804892E-07  4.49864556E-06  1.42507366E-05  1.66924871E-07  2.11706250E-04  6.32362164E-05  7.63908149E-07  2.01498325E-07  4.46720588E-08  7.83242560E-08  2.68262831E-08  3.43177863E-08  6.46561107E-08  2.71718901E-08  4.59129155E-08  1.50636763E-07  3.09448469E-07  8.19179658E-08  1.52222178E-07
      1.66688345E-08  3.11482829E-08  5.23206004E-08  1.08989490E-08  3.77589484E-08  3.42717324E-07  2.18864114E-07  1.99468898E-07  1.45208436E-07  2.32499262E-07  4.24308883E-06  8.61647592E-08  4.27781642E-06  8.18074547E-08  7.10343836E-08  6.41343082E-08  6.38308904E-08  5.46029812E-08  3.33524495E-08  5.23011704E-08
      3.41884514E-08  4.31175946E-06  4.62561866E-06  4.95507774E-06  4.82726842E-06  5.21549095E-06  4.58519321E-06  2.86847784E-08  3.66774276E-08  2.25337404E-08  1.06704689E-08  8.05330764E-09  1.07614620E-08  7.43087669E-09  9.09818701E-06  7.30452247E-06  8.29476275E-09  1.34519936E-08  6.34407454E-09  9.30114598E-09
      1.62254551E-08  3.46588398E-08  1.52981821E-08  3.14155511E-08  2.66731620E-07  4.84897968E-07  1.06124919E-07  2.14066453E-07  8.67129900E-08  1.35995096E-07  3.63399569E-07  6.79074639E-07  1.70855328E-07  2.74638673E-07  1.50994442E-07  9.16020279E-08  3.57468754E-07  2.05389079E-07  3.13181371E-07  3.00390475E-07
      1.41587850E-07  1.30739196E-06  2.88053107E-06  5.87032050E-06  1.33452050E-07  9.68760261E-06  1.76609276E-06  6.09145921E-06  5.82438251E-06  5.53797927E-06  1.18410601E-05  2.23775678E-05  9.65297661E-06  1.43117553E-05  1.67432913E-05  1.36650978E-05  1.79469174E-05  1.42504452E-05  5.81714230E-06  7.05617131E-06
      1.09172346E-05  1.47955892E-05  9.73350100E-06  8.61571313E-06  3.10383026E-05  4.34448045E-05  1.99209596E-05  2.91823518E-05  1.69589447E-05  2.57396844E-05  2.71755307E-05  4.70351808E-05  1.92986576E-05  1.55984490E-06  7.61006108E-08  4.82190942E-08  6.76750134E-08  1.17447544E-07  1.04369149E-07  6.38662315E-07
      1.81986926E-05  1.16313192E-07  2.80539345E-04  2.05982181E-04  7.46999751E-06  4.11417342E-08  8.90730986E-09  1.16733795E-08  1.30759911E-08  9.41814246E-09  4.20559024E-08  9.46633859E-08  2.94077024E-08  1.86945887E-07  5.03169796E-08  1.67864506E-08  9.96219711E-09  1.99892339E-08  1.53634403E-08  1.19746840E-07
      4.99727832E-08  8.82888868E-09  8.37493681E-09  1.74066412E-08  1.39048420E-08  1.49437441E-08  2.65445189E-08  1.78919451E-08  2.94005502E-08  7.36913422E-08  3.26459194E-08  5.26616657E-08  1.34304400E-07  5.19958706E-08  1.05980704E-07  1.53254234E-07  1.73952878E-07  1.12701851E-07  9.89626066E-08  4.88240661E-08
      8.03154826E-08  6.22269708E-08  8.07857310E-08  6.73681423E-08  7.75197976E-08  6.72179453E-08  5.84380786E-08  1.57989599E-07  3.41306659E-07  1.09873819E-07  4.81339425E-06  8.03184660E-06  7.30855879E-06  8.08230151E-06  8.23039564E-06  8.93522862E-08  8.95970331E-06  3.12300057E-06  8.83642146E-06  9.84275774E-06
      7.86163193E-06  1.52632635E-05  7.76789530E-06  6.64088536E-06  5.17889617E-06  7.08032858E-06  5.92438313E-06  6.39618341E-06  5.49274461E-06  5.41180218E-06  3.58721432E-06  8.67879895E-06  9.22419774E-06  1.34821435E-05  1.26773281E-05  8.90948576E-06  5.03740961E-06  9.36423917E-06  8.42794944E-06  4.43220421E-06
      4.18044050E-06  3.65739225E-06  3.59721529E-06  4.89718260E-06  8.05046163E-06  3.62104827E-06  6.58353381E-06  3.24400850E-06  3.23143830E-06  3.52273498E-06  2.89781772E-06  2.91889809E-06  2.69912362E-06  6.15211907E-10  3.34884087E-09  9.15041834E-06  1.17137666E-05  7.05818428E-06  4.02243620E-06  7.73939085E-06
      4.96665539E-08  1.01110840E-08  5.94035213E-04  8.00916708E-05  8.69759525E-08  1.49396166E-07  8.93516859E-07  1.92324839E-07  2.89993035E-07  2.92232310E-08  8.03944324E-07  3.05884267E-07  1.15352816E-07  6.94045479E-05       0.00160941  3.96570200E-05  6.93039608E-07  1.91905918E-04  1.30511950E-07  2.60853002E-07
      1.82868483E-07  7.68642975E-08  8.63630700E-08  1.52100523E-07  1.59177251E-07  7.40076994E-06  1.06515732E-05  1.38751542E-05  1.36474669E-05  1.13601033E-05  1.24675352E-05  1.01875948E-05  1.17143048E-05  1.08793518E-05  9.35686689E-06  1.44057167E-05  1.03682863E-05  1.54069823E-05  1.39665518E-05  4.11513130E-06
      7.19817841E-10  3.88415415E-06  1.02056044E-09  7.87626394E-10  1.71589236E-09  9.77372922E-10  4.39399808E-10  4.31089421E-09  4.01136719E-10  2.27181390E-10  1.51797377E-09  2.14300073E-10  4.11114188E-09  2.46933853E-04       0.00211618  1.12458418E-07  1.29455345E-05  9.10090091E-05  5.57056396E-06  5.83647021E-06
      1.05661955E-08  2.15958153E-07  2.99561445E-07  1.35790080E-07  3.05199308E-07  5.26036212E-04  1.53581482E-04  6.01212688E-04       0.00638860  3.02817408E-04  1.09828890E-07  9.01268851E-08  1.55142047E-06  5.52359565E-05  1.33893948E-05  1.41814346E-09  9.20554606E-10  1.32936703E-08       0.00450810  8.46737272E-08
      1.21159622E-05  3.75147524E-04  3.03153212E-06  7.30696151E-06  2.09119503E-07  1.23747389E-07  3.31502967E-07  1.00164317E-07  2.32633152E-05  4.46678810E-04  4.67447739E-04       0.00231655       0.00432292       0.00261042  1.20659576E-06  1.42441733E-07  2.84084249E-05  1.70401331E-04  3.59071872E-05  2.20202970E-07
      1.18148756E-08  1.08911600E-08  5.69116627E-08  3.53262015E-06  4.83390981E-06  3.32938908E-06  2.92420678E-06  5.32017750E-06  6.62054901E-06  1.76284433E-07  8.44537695E-08  1.53716488E-08  3.80125626E-04  8.84196634E-04       0.00111023       0.00305159       0.00328625       0.00201841  1.18241259E-06  8.85720766E-08
      1.88148536E-05  1.36382697E-04  4.42478258E-04  8.72558368E-06  1.06178309E-06  5.02206973E-06  6.38761975E-05  2.83793985E-05  3.50078063E-06  1.49309723E-07  2.03553430E-06  4.70084941E-06  8.51599643E-06  2.25185167E-06  5.03975440E-06  1.26877422E-07  6.40027346E-08       0.00126860  6.46824432E-04       0.00123564
           0.00247981  3.78123413E-04  7.66282789E-07  6.11047491E-08  1.73160815E-07  8.55940997E-05       0.00603353  5.17108416E-05  3.30583706E-06  1.14600968E-05  1.70124130E-04  6.15806654E-05  9.42032040E-08  1.13670750E-07  2.60735572E-07  4.49296413E-05  5.66432309E-06  1.89757969E-06  5.80740308E-06  2.34360854E-07
      1.26571671E-04  9.86081672E-05  8.91903658E-04       0.00108287  8.67644495E-06  2.29794595E-05  5.09556378E-07  1.69469832E-07  2.16470232E-07  4.15302990E-05  8.92369984E-04  2.86290018E-05  9.94189866E-07  1.54266322E-06  3.03227534E-05  7.42423194E-07  6.94056342E-08  2.45943479E-08  5.04688614E-08       0.00597945
    INTERNAL  FACTOR  1.0
      3.92327502E-07  1.69221463E-06       0.00216840       0.00212729       0.00355064       0.00726606       0.00455672       0.01656035       0.01701184       0.00472142       0.00232660       0.00205795       0.00883595       0.00218878  6.76530511E-06  1.50615255E-06  1.52214964E-06  4.23745440E-06  7.18755915E-06  2.40543238E-06
      1.96759102E-04  2.77417769E-08  1.65920659E-07  8.96413083E-05       0.00267163  8.00784696E-04       0.00365905       0.00289733       0.01850031       0.00467998       0.00202152       0.00873752       0.01888314       0.01210456       0.01163264       0.00282426  6.32032992E-04  3.77582077E-04  6.37873594E-06  6.07301097E-06
      7.31319200E-06  1.63508886E-05  5.24096757E-05  1.19409947E-04  5.38027358E-04  7.15629670E-05  2.48798772E-07  7.54166557E-07       0.00745864       0.00188415       0.00365937       0.00647853       0.00398894       0.00536653       0.00529903       0.00785534       0.00505021       0.01163283       0.00976368       0.00136706
      8.23294122E-05  1.70758949E-05  2.82328561E-04  4.82561104E-05  2.79349836E-05  3.89913139E-05  8.34962846E-05  1.02389773E-04       0.00233176       0.00260623  2.35026905E-05  4.14129727E-05       0.00137929       0.00204342       0.00136364       0.00948274       0.00419986       0.00207149       0.00311075       0.00569074
      5.39570609E-04       0.00201094       0.00224565       0.00108129  2.29360065E-04  7.68194766E-05       0.00251246  1.17238697E-04  5.66164175E-05  7.87206995E-05  7.96963149E-05  5.04922159E-04       0.00111764       0.00323269       0.00297450  8.26830685E-04  9.90240553E-04  2.30987556E-04  1.27024447E-04       0.00500847
           0.01105026       0.00213873       0.00269392       0.00285947       0.00270629       0.00378633       0.00129701  2.66107423E-04  1.84895188E-04  1.11009266E-04  3.86414714E-04  1.59974999E-04  9.91767955E-05  9.03151512E-05  3.39460619E-05  1.96457128E-05  7.91038744E-04  7.88895051E-04       0.00157972       0.00137223
      6.79793710E-07  2.98727163E-07  1.34181569E-07       0.00198183       0.01578726       0.00566654       0.00779078       0.00477710       0.00935996       0.00349223       0.00266621       0.00126758  2.34175800E-04  4.25563819E-05  1.19639497E-04       0.00173274  8.02834658E-04  6.76039088E-05  7.33301425E-06  2.27494003E-05
      5.39181076E-04  3.50606833E-04  6.44101285E-04  2.01708804E-04  1.50224525E-06  8.03247967E-07  7.54515055E-05       0.00296140       0.01193732       0.01381422       0.02402161       0.02475097       0.01946544       0.00821869       0.00175882       0.00161494  1.60418163E-04  5.84172135E-07  5.12842140E-07  5.35946828E-04
           0.00126461  9.94318169E-04  3.75438422E-04  1.41750177E-04  2.04147369E-04  1.34725520E-04  6.96060659E-06  6.52252881E-06  5.48104083E-05  1.09221448E-06  1.02740694E-05  3.73845287E-04       0.00385423       0.00837172       0.00494470       0.00848383       0.01626056       0.00435406       0.00190022  6.32579606E-04
           0.00373375       0.00406079  3.89671275E-04       0.00113851       0.00339133       0.00114584       0.00233764       0.00119781  3.67665339E-04  7.25366025E-05  8.32192496E-04  6.99434014E-04       0.00287023       0.00390092       0.00355029  1.92409873E-06  1.38817857E-06  1.05902878E-04  1.03165230E-05  5.77212067E-06
      3.66840663E-06       0.00339783  1.94811509E-04  8.03097738E-05       0.00184907  5.24180729E-04       0.00343239  2.31667850E-07  8.94827764E-08  2.40756202E-07  3.68994010E-08  3.71545031E-08  9.09315975E-04  6.99708324E-04  4.03834915E-04  3.73365482E-05  2.36592990E-07  2.23357211E-07  2.01144710E-07  1.13580063E-07
      1.27775547E-04  1.01858472E-07  3.31043951E-08  9.24046661E-08  3.23058738E-08  5.84861658E-07  1.50516070E-05  2.05572707E-07  2.19401156E-07  4.64120731E-05  9.78578497E-04  2.83109091E-05  4.07832210E-05  7.06387107E-08  1.14119978E-07  1.05808617E-07  7.53920193E-07  7.15847056E-06  1.98160729E-05  2.94693675E-06
      3.37430928E-06  2.60641197E-04  4.67823036E-05  3.30211113E-05  3.01595758E-05  3.42854614E-05  2.25744532E-05  2.37355980E-05  9.40254791E-06  1.78972645E-05  2.02759868E-05  2.25271051E-05  2.27123698E-05  6.92271751E-07  1.09068746E-05  1.04584104E-07  9.37077436E-08  4.03423760E-08  8.05533507E-08  1.47998711E-07
      4.35740855E-07  1.23040526E-06  2.86716887E-06  5.38147936E-06  2.59933109E-07  8.58282838E-05  1.72158787E-06  4.32875335E-06  1.09207222E-05  3.24482297E-04  8.44716059E-05       0.00104959  6.90560944E-05  7.87005887E-04       0.00232666       0.00452295       0.00169554       0.00154268  5.51945742E-04  6.50926181E-04
           0.00183368       0.00104764  5.26734387E-04  5.17068987E-04       0.00350732       0.00332198       0.00144468       0.00257790  7.49183825E-04       0.00300030       0.00295631       0.00484363       0.00494623       0.00741969       0.00408333       0.00229657       0.00477570       0.00655365       0.01094257       0.01113026
           0.00301398       0.00112873       0.00446505       0.00193456       0.00152674       0.00222119  7.67011083E-04  4.77136581E-04       0.00126836  6.83415636E-04       0.00117315       0.00329414  1.47072779E-04  1.10914535E-05  3.31266537E-05  4.17007081E-05  1.27696145E-06  2.11095863E-07       0.00783362       0.00157131
           0.00230048       0.00527936       0.00286483       0.00500552       0.00986844       0.00663089  3.20995121E-04  1.80784870E-07       0.00241476  1.14635094E-04  4.99124072E-08  6.82951189E-08  8.84283682E-05  6.87996520E-05  3.37766181E-06  2.89042428E-05  9.52076263E-06  2.34192906E-04  5.67828783E-04  1.72993053E-04
           0.00169516  3.81189125E-06  5.96006880E-06  5.89129816E-04  1.09048221E-04  7.16244605E-06  8.10428977E-06  7.75604021E-05  1.32619986E-04  5.16203048E-04  4.01821233E-04  9.30537649E-05       0.00106539  3.54887330E-04       0.00104156  4.53083286E-04       0.00100476       0.00136613  6.81993047E-04  3.53201637E-04
      6.17941213E-04  4.29773014E-04  6.01551611E-04       0.00128663  2.20916120E-04  8.27467066E-04  8.74684925E-05  6.30474294E-04  9.52227747E-05  1.12773558E-04  5.43579776E-05  1.43850624E-04  2.65951638E-04  4.86802739E-05  6.61504616E-05  7.20425117E-05  5.26172188E-05  6.49295311E-05  4.54027156E-05  3.25765078E-05
      3.40852456E-05  2.83437127E-05  1.86593765E-05  6.50930639E-04       0.00349396  1.24256705E-04       0.00421957       0.00771990       0.01744255       0.00989044       0.02156390  4.15114855E-05       0.00114425  2.14353903E-05  5.41200600E-05       0.00433716       0.01371991       0.00364947       0.01522516       0.01874440
           0.01362314       0.01857133       0.01244483       0.01113434       0.00487096       0.01275701       0.01013133       0.01921569       0.01179935       0.01793777       0.01074304       0.01218043       0.01170026       0.00998605       0.00879216       0.00213554       0.00169653       0.00557661       0.00351374       0.00292321
           0.00765688       0.00446431       0.00692872       0.00321004       0.00119144       0.00168335  5.90027269E-05  3.01921602E-07  5.06813653E-07       0.00169802       0.00119490       0.00139343       0.00219626       0.00391355       0.00795106       0.01062591       0.02878356       0.01069404       0.00135862       0.00357418
           0.00700636       0.00117956  2.61931211E-04       0.00269449       0.00130529  3.98018557E-05  1.97478080E-05  3.67032400E-05  1.97793628E-05  1.73457352E-05  3.14935406E-05  1.88025984E-05  1.71193627E-05  9.86827225E-04       0.00951398  1.31735022E-04       0.00673526  1.22384520E-05  5.28340348E-04       0.01408640
           0.01384493       0.00985366       0.00930759       0.00603564       0.01182954       0.00267534       0.00635522       0.00295408       0.00338964       0.00858658       0.00302158       0.00337948       0.00141738       0.00167644       0.00575649       0.00754399       0.00218964  3.33085919E-05  5.93395059E-05  1.81581069E-06
      4.03858851E-04       0.00126838  2.07363188E-04       0.00131407       0.00156599       0.00133187       0.00509479       0.01161111       0.02572725       0.00364755       0.00483033       0.01557973       0.01637513  2.14254174E-05  1.51166940E-05       0.00170817  5.97614939E-04       0.00109376       0.01848238  8.70742420E-05
      6.46989808E-05  1.49707883E-04  6.35376948E-05  1.45801476E-06  7.11116000E-09  1.49966841E-07  7.18272008E-04       0.00208725       0.00215052       0.00205367       0.00391822       0.00802173       0.00606136       0.00303536       0.00499928       0.00243664       0.00865097  5.59881745E-05  1.74142256E-04  1.38794335E-04
      1.44200643E-04  1.02839350E-04       0.00524305  1.00840827E-05  5.85807886E-05  9.05152666E-05  9.22032762E-05  1.39469615E-05  1.80923329E-06  1.91791926E-07       0.00194478       0.00591007       0.00376406       0.00207434       0.00214102       0.00882487       0.00333848       0.00361663       0.00927597  3.67866904E-04
      1.56721691E-04  2.21379239E-04       0.00230894  3.98291686E-04  8.58016032E-06  2.48804218E-07  8.44916402E-05  1.91751985E-05  1.80364563E-05  1.85291088E-05  1.46833367E-04  6.06262206E-05  8.97845806E-05  3.80052192E-05  8.97002427E-04       0.01374703       0.01305432       0.02504211       0.00199049       0.00224966
           0.01015862       0.00409529       0.00544444  3.31228552E-04  1.09194510E-04       0.00136675  5.39996093E-04       0.00124302  2.17704840E-07  1.73094131E-07  4.13205069E-06  2.14388283E-06  5.97224280E-06  1.24078832E-07  8.49395813E-05  1.10292180E-04  1.98649385E-04  4.84935657E-04       0.00119665       0.01900996
           0.02864589       0.02576669       0.00260691       0.00440729       0.01414349  6.69319848E-04  7.05773858E-04       0.00263477  3.10424707E-04       0.00221589  2.89020400E-06  4.36407258E-06  2.25653778E-07  4.62884381E-07  3.18176078E-06  1.59064681E-06  5.12879864E-07  9.27917282E-07  3.60509242E-05  4.10084739E-04
    INTERNAL  FACTOR  1.0