# File generated by Flopy version 3.9.5 on 12/11/2025 at 15:17:35.
BEGIN options
  SAVE_FLOWS
  SAVE_SPECIFIC_DISCHARGE
  SAVE_SATURATION
END options

BEGIN griddata
  icelltype
    CONSTANT  0
  k  LAYERED
    INTERNAL  FACTOR  1.0
      4.22112511E-04  3.66509859E-04  3.06497561E-04  2.92643439E-04  2.50286190E-04  2.94649712E-04  2.53319187E-04  2.88764118E-04  3.29341610E-04  3.31044559E-04  4.00901436E-04  3.51134106E-04  2.50895857E-04  1.05877822E-04  3.66918430E-05  1.47698541E-05  6.87041653E-06  3.06589482E-06  2.73025944E-06  2.70960481E-06  3.38319624E-06  5.67885509E-06  8.64147751E-06  1.36327317E-05  2.48423457E-05  4.60871925E-05  7.78293936E-05  1.05000357E-04  1.11667323E-04  1.10744673E-04  9.77510548E-05  7.38726764E-05  5.11334947E-05  4.25586574E-05  3.87166918E-05  4.62873111E-05  5.08403580E-05  5.83978312E-05  8.50065335E-05  1.38748049E-04  1.82351912E-04  2.49370409E-04  2.67719966E-04  2.06536322E-04  1.14063635E-04  5.23143050E-05  3.25725559E-05  3.09635313E-05  2.60456527E-05  2.32214170E-05  2.77318013E-05  3.39228369E-05  5.71622048E-05  8.76125026E-05  1.22694716E-04  1.31956738E-04  1.07516651E-04  8.27460234E-05  6.37094199E-05  5.68899668E-05  5.46522133E-05  7.38577583E-05  1.20212382E-04  1.36699314E-04  1.35210090E-04  1.13850884E-04  1.08140281E-04  1.33298389E-04  1.40223199E-04  1.19942991E-04  1.30973291E-04  1.58141862E-04  1.74339264E-04  1.61689997E-04  1.88880400E-04  1.65498699E-04  2.00111170E-04  2.18837771E-04  2.68992303E-04  3.97984559E-04  7.81738277E-04       0.00159532       0.00224055       0.00218653       0.00154978       0.00119201       0.00123807       0.00122229       0.00147234       0.00163949       0.00188878       0.00184525       0.00198587       0.00244579       0.00371271       0.00516285       0.00463995       0.00344526       0.00296587       0.00281696
      2.28114476E-04  1.77244290E-04  1.38957852E-04  1.24386088E-04  9.95280487E-05  1.13610552E-04  1.38967051E-04  1.71268897E-04  2.56203726E-04  2.16933535E-04  2.61330249E-04  2.41010785E-04  1.91678540E-04  9.35616918E-05  3.65394881E-05  1.17267087E-05  5.68842855E-06  2.56486298E-06  1.86031654E-06  1.68738370E-06  2.36906144E-06  3.88743356E-06  6.08593327E-06  1.22309066E-05  2.34966428E-05  4.61511263E-05  8.25964729E-05  1.33743929E-04  1.43550734E-04  1.19937273E-04  8.03491469E-05  6.24314319E-05  4.44006194E-05  3.91592427E-05  3.77054792E-05  4.14445472E-05  4.41076583E-05  6.16117031E-05  7.65492732E-05  1.17074713E-04  1.59158837E-04  2.36617789E-04  2.35553385E-04  1.82418851E-04  1.05839640E-04  5.14155739E-05  3.03695876E-05  2.49577824E-05  2.36873675E-05  2.48800847E-05  2.40912472E-05  3.01086606E-05  3.69842358E-05  5.33222046E-05  6.89893994E-05  6.64632992E-05  5.96813167E-05  4.47358179E-05  3.54036129E-05  2.93423745E-05  3.03105408E-05  4.06203991E-05  6.47160244E-05  7.13542298E-05  6.44924391E-05  6.90846604E-05  7.29071778E-05  1.11232407E-04  1.13565009E-04  1.31903824E-04  1.62523240E-04  1.88311588E-04  1.97692731E-04  2.00240043E-04  2.49265460E-04  2.20016493E-04  2.43153789E-04  2.21604448E-04  3.51193062E-04  5.32855446E-04       0.00113661       0.00286115       0.00488820       0.00474456       0.00333141       0.00267798       0.00265147       0.00201858       0.00226425       0.00294080       0.00279961       0.00291287       0.00279361       0.00398581       0.00536376       0.00542534       0.00531889       0.00404697       0.00320161       0.00292712
      9.51907035E-05  5.79353655E-05  4.84580717E-05  4.20779543E-05  3.49578165E-05  4.02562353E-05  6.48216810E-05  9.42282568E-05  1.33701600E-04  1.29325315E-04  1.41726996E-04  1.44490507E-04  1.23726306E-04  8.43298985E-05  2.86687344E-05  1.00843598E-05  4.59564308E-06  2.44114608E-06  1.37973693E-06  1.13409824E-06  1.43646776E-06  2.16271055E-06  3.99829805E-06  9.99423501E-06  2.59420951E-05  4.72410291E-05  8.11402453E-05  1.50352445E-04  1.47575037E-04  1.23555898E-04  8.37674112E-05  5.99856042E-05  3.24806703E-05  3.13471634E-05  3.64414300E-05  4.23221150E-05  4.46488382E-05  5.21470618E-05  6.59261714E-05  1.05358355E-04  1.51286426E-04  2.03512764E-04  1.96410246E-04  1.36559606E-04  8.85212600E-05  4.30239985E-05  2.71906010E-05  2.40829722E-05  2.43616105E-05  2.12353363E-05  1.93510670E-05  2.46656758E-05  2.78541847E-05  3.17927874E-05  3.66850789E-05  3.85111562E-05  3.44607724E-05  2.53540202E-05  1.99464830E-05  1.82770909E-05  1.88580145E-05  2.50824586E-05  3.46051214E-05  4.30251336E-05  3.60656205E-05  4.47802777E-05  5.59482271E-05  7.28000770E-05  9.56865493E-05  1.32788231E-04  1.78262785E-04  2.08741067E-04  2.19650421E-04  2.21245806E-04  2.70534365E-04  3.34175570E-04  3.66226304E-04  3.46123141E-04  5.15494662E-04  7.88528738E-04       0.00152795       0.00358222       0.00635842       0.00626541       0.00506168       0.00439042       0.00362801       0.00334254       0.00343489       0.00414769       0.00415588       0.00435805       0.00367084       0.00440549       0.00544919       0.00519844       0.00436216       0.00307434       0.00223918       0.00191481
      3.23499116E-05  2.07517412E-05  1.42699006E-05  1.20567020E-05  1.23282443E-05  1.34398191E-05  2.35062866E-05  4.30494074E-05  6.45729233E-05  6.69530855E-05  6.31811708E-05  7.12117908E-05  6.58690406E-05  4.88684782E-05  1.99112422E-05  7.78719966E-06  4.20351383E-06  1.81726937E-06  1.10302071E-06  9.99782151E-07  1.22012316E-06  1.51819359E-06  3.07111562E-06  1.03901431E-05  2.89584976E-05  6.29075706E-05  1.12810686E-04  1.89739415E-04  1.67246403E-04  1.29988485E-04  8.28393386E-05  4.84898046E-05  2.94376106E-05  2.57509285E-05  2.75938267E-05  3.49999726E-05  4.14656912E-05  5.64240036E-05  7.44267425E-05  1.06277897E-04  1.33154477E-04  1.86546560E-04  1.78591159E-04  1.33948284E-04  7.07329794E-05  3.96281102E-05  2.32694165E-05  2.03230629E-05  1.99455353E-05  1.76451009E-05  1.81229785E-05  2.12487672E-05  1.98999083E-05  1.77613219E-05  2.04321077E-05  2.20094626E-05  1.79322087E-05  1.51886352E-05  1.28062893E-05  1.30259868E-05  1.30268292E-05  1.96763467E-05  2.55192073E-05  2.57045717E-05  2.56510580E-05  3.55514421E-05  4.74257482E-05  5.72906225E-05  7.91975763E-05  1.05218566E-04  1.54100333E-04  1.78424693E-04  1.98368850E-04  2.18455025E-04  3.17585276E-04  3.93938215E-04  4.32189030E-04  4.46659193E-04  7.22789846E-04       0.00127069       0.00244505       0.00446869       0.00610015       0.00731957       0.00745746       0.00671901       0.00513370       0.00501709       0.00482231       0.00378273       0.00380322       0.00390762       0.00357871       0.00448764       0.00461847       0.00380705       0.00261045       0.00173789       0.00114178  8.01731599E-04
      9.80289115E-06  7.08253137E-06  5.91977623E-06  4.95186941E-06  5.69587185E-06  6.57645796E-06  1.03164504E-05  1.78860771E-05  2.70962901E-05  3.00039228E-05  2.85157112E-05  3.61532329E-05  3.19137907E-05  2.58536602E-05  1.38790357E-05  6.06102428E-06  3.24616940E-06  1.33549611E-06  9.82410438E-07  9.33628417E-07  1.10116404E-06  1.43621416E-06  2.68223630E-06  9.04686143E-06  2.50937325E-05  5.98624756E-05  1.30256056E-04  1.89964116E-04  1.58085042E-04  1.11925290E-04  6.78959768E-05  4.27034422E-05  3.13521799E-05  2.51719393E-05  2.17733880E-05  2.54763436E-05  3.34184078E-05  4.58047580E-05  8.15739040E-05  1.25884870E-04  1.55331538E-04  1.80766074E-04  1.32323388E-04  1.08539782E-04  6.44097454E-05  4.00014760E-05  2.21947230E-05  2.24210016E-05  2.09852860E-05  1.96811845E-05  2.09947451E-05  1.83971339E-05  1.48878483E-05  1.33398389E-05  1.50979104E-05  1.72037671E-05  1.63346348E-05  1.35712584E-05  1.24282475E-05  1.38924790E-05  1.31100549E-05  2.03704058E-05  2.57289339E-05  2.31499853E-05  2.26300162E-05  3.06884338E-05  4.30850807E-05  6.02221963E-05  7.97679320E-05  1.00292393E-04  1.57015747E-04  1.72364735E-04  1.89457929E-04  2.33684434E-04  2.91941429E-04  3.58390942E-04  5.07746940E-04  5.23962197E-04  6.79098361E-04       0.00113948       0.00226350       0.00430605       0.00587634       0.00783452       0.00942623       0.00986003       0.00797239       0.00711192       0.00524021       0.00362422       0.00300806       0.00296719       0.00316057       0.00339356       0.00287000       0.00211292       0.00158153  8.70262738E-04  5.00729773E-04  2.63833150E-04
      3.13474493E-06  2.40943268E-06  2.33891187E-06  2.00498598E-06  2.97133593E-06  4.33850679E-06  6.15695778E-06  8.45997420E-06  1.23153212E-05  1.27927196E-05  1.17627070E-05  1.45055487E-05  1.83628997E-05  2.00072806E-05  1.00558324E-05  4.54753596E-06  2.35355280E-06  1.40889339E-06  1.12432162E-06  1.07437586E-06  1.13251751E-06  1.35866789E-06  2.66630862E-06  7.22362650E-06  2.00263955E-05  5.84821925E-05  1.21979596E-04  1.63383510E-04  1.30512286E-04  9.55297534E-05  6.39119341E-05  4.33490699E-05  2.93286527E-05  2.17176809E-05  1.97292175E-05  2.30520697E-05  2.78827356E-05  4.42283432E-05  9.17724508E-05  1.13500399E-04  1.34175632E-04  1.51603541E-04  1.13246526E-04  8.22602829E-05  5.25184660E-05  3.72991708E-05  3.29184477E-05  2.88924748E-05  2.58077071E-05  2.73014273E-05  2.86218390E-05  2.06288678E-05  1.42422962E-05  1.08616940E-05  1.22649863E-05  1.39486810E-05  1.16923353E-05  1.14418573E-05  1.34237052E-05  1.64807556E-05  1.63603807E-05  2.07362448E-05  2.83564641E-05  3.08109775E-05  3.15861907E-05  3.64867414E-05  4.72171756E-05  5.64285596E-05  7.01671180E-05  9.28081360E-05  1.27676896E-04  1.42334739E-04  1.48378235E-04  1.98192015E-04  2.69094172E-04  3.11875276E-04  3.30346973E-04  4.97940346E-04  7.63421471E-04       0.00102809       0.00193589       0.00324552       0.00481903       0.00692772       0.00786577       0.00958876       0.00819202       0.00659339       0.00402967       0.00290808       0.00246929       0.00240017       0.00225931       0.00192521       0.00150945       0.00114644  7.88067235E-04  4.24470607E-04  2.08124256E-04  1.36142320E-04
      1.12633029E-06  1.01243347E-06  1.14716468E-06  1.42693407E-06  2.08882248E-06  3.28589122E-06  4.11902238E-06  5.22625305E-06  5.77166187E-06  6.85899587E-06  6.69710789E-06  7.88847475E-06  1.37444097E-05  1.44816719E-05  1.04821581E-05  5.14458225E-06  3.11245518E-06  1.89735723E-06  1.54057140E-06  1.63819595E-06  1.55553365E-06  1.63022872E-06  2.26673858E-06  6.61610154E-06  1.81310218E-05  4.46004754E-05  1.00438458E-04  1.23237376E-04  9.99721524E-05  8.02141343E-05  5.26167617E-05  4.01834574E-05  3.04919716E-05  2.36904695E-05  1.97669009E-05  1.96152663E-05  2.72617544E-05  4.63025887E-05  7.85196084E-05  1.08204060E-04  1.16340432E-04  1.21501484E-04  1.09334255E-04  9.07012203E-05  6.23417611E-05  5.58367348E-05  5.03087358E-05  4.13369795E-05  3.88742337E-05  3.59748374E-05  3.90484172E-05  2.52179428E-05  1.91817320E-05  1.37549224E-05  1.23694242E-05  1.59293086E-05  1.35885833E-05  1.52407301E-05  1.83647368E-05  2.41405913E-05  2.67527881E-05  3.22526641E-05  3.48267042E-05  4.42774035E-05  5.34066510E-05  5.77632571E-05  5.28372067E-05  5.90854483E-05  5.74455268E-05  7.13053265E-05  8.73269376E-05  1.03787531E-04  1.14595308E-04  1.29111204E-04  2.10704212E-04  2.46390028E-04  2.75999127E-04  3.73203644E-04  5.77695306E-04  8.64379690E-04       0.00121133       0.00233293       0.00380793       0.00510139       0.00600715       0.00754382       0.00619748       0.00446914       0.00307558       0.00224878       0.00192248       0.00169762       0.00142879       0.00103363  7.54119130E-04  5.60004031E-04  3.37721198E-04  1.83859578E-04  9.87847598E-05  7.77840614E-05
      7.22866162E-07  6.91979039E-07  8.01652675E-07  1.20318628E-06  1.81739615E-06  3.74806441E-06  4.89132435E-06  4.08387738E-06  4.39030009E-06  5.26757382E-06  5.45455623E-06  5.42081337E-06  8.13510148E-06  1.32405427E-05  9.32884359E-06  7.17540085E-06  4.08138900E-06  2.57157778E-06  2.22010946E-06  2.45266089E-06  2.15799446E-06  2.62408763E-06  4.17318656E-06  8.68892156E-06  2.03462051E-05  3.82433230E-05  8.45247331E-05  1.05537142E-04  9.15610872E-05  8.84815721E-05  6.28978790E-05  4.88824444E-05  4.48479162E-05  3.54335893E-05  2.45128363E-05  2.18314696E-05  2.79442587E-05  4.48965729E-05  7.60842115E-05  1.09305035E-04  1.05367764E-04  8.71346390E-05  8.21890484E-05  7.37387338E-05  6.69733388E-05  4.72906482E-05  4.97808505E-05  5.55914128E-05  5.51165256E-05  5.80343301E-05  4.74924163E-05  2.73321445E-05  2.17639463E-05  1.82581217E-05  1.62041220E-05  1.93180058E-05  1.89831626E-05  2.15116921E-05  2.90454158E-05  3.94769508E-05  4.00872290E-05  4.61709133E-05  6.62905746E-05  8.31775251E-05  1.10574788E-04  1.07818178E-04  7.49864150E-05  6.13735639E-05  5.01595416E-05  5.55947243E-05  6.32128107E-05  6.63715764E-05  8.59545427E-05  1.08484516E-04  1.50914979E-04  1.71130355E-04  2.20253339E-04  2.50175906E-04  3.00490401E-04  4.47789935E-04  7.26451981E-04       0.00135456       0.00224120       0.00295204       0.00407382       0.00556310       0.00431950       0.00326281       0.00199785       0.00154063       0.00113091  8.67859926E-04  6.49148191E-04  4.79511975E-04  3.57496785E-04  2.42160793E-04  1.66938698E-04  1.04255123E-04  7.38340314E-05       1.00000000
      5.92383913E-07  5.99854388E-07  7.89583055E-07  1.41887347E-06  2.10429280E-06  3.62897263E-06  4.86355493E-06  5.61053639E-06  5.55039757E-06  5.82487458E-06  4.65937865E-06  4.72962317E-06  7.57913585E-06  1.45239246E-05  1.29262859E-05  1.05708234E-05  7.16335853E-06  4.57795395E-06  3.92560863E-06  3.36099947E-06  2.95668633E-06  3.86221169E-06  6.34178858E-06  1.37192702E-05  2.56117554E-05  4.71861484E-05  8.00181297E-05  8.82552413E-05  9.49892980E-05  9.60624477E-05  7.49437438E-05  6.64378292E-05  6.05785296E-05  6.22049140E-05  3.74169987E-05  3.43551552E-05  2.86284436E-05  3.99590984E-05  6.83724356E-05  9.82859929E-05  9.90775200E-05  7.57187023E-05  8.76532053E-05  8.13063525E-05  7.02629099E-05  5.82048553E-05  4.85413853E-05  5.68791816E-05  6.18325663E-05  7.06700725E-05  5.64460468E-05  3.24071758E-05  2.22837431E-05  2.04857476E-05  2.18243346E-05  2.90061798E-05  3.28167225E-05  4.17762915E-05  5.69806370E-05  7.35945825E-05  7.11105007E-05  7.77201785E-05  1.08931749E-04  1.43650372E-04  1.65121376E-04  1.80478930E-04  1.08077540E-04  6.93101960E-05  5.23595721E-05  4.30132628E-05  4.26645803E-05  4.84393359E-05  6.44855000E-05  8.14054627E-05  1.09653092E-04  1.03246725E-04  1.35995771E-04  1.44288247E-04  1.62431259E-04  2.27204265E-04  3.81079823E-04  5.71677794E-04  9.64463422E-04       0.00135503       0.00197232       0.00300095       0.00241187       0.00215202       0.00159914       0.00103857  6.66749489E-04  4.46272636E-04  3.10734817E-04  2.19059119E-04  1.77934256E-04  1.34941743E-04  1.06198779E-04  8.67739363E-05  7.51637635E-05       1.00000000
      8.08541775E-07  8.76722595E-07  1.15011153E-06  2.18034711E-06  3.84952955E-06  7.31051987E-06  8.85332629E-06  9.78476843E-06  8.81283449E-06  7.21785182E-06  5.61092929E-06  5.92904992E-06  8.84870387E-06  1.36282091E-05  1.43964178E-05  1.50860302E-05  1.25281687E-05  8.47652409E-06  7.52310225E-06  5.74437521E-06  5.48503219E-06  6.87509540E-06  1.08176599E-05  2.25838843E-05  4.48711175E-05  6.61482835E-05  9.67629409E-05  9.53198344E-05  9.96417117E-05  1.33603553E-04  1.25885076E-04  1.14893907E-04  1.08045975E-04  9.20474247E-05  7.62224247E-05  5.91140623E-05  4.66623003E-05  4.62723644E-05  6.78105086E-05  9.64384720E-05  8.12287277E-05  7.24475491E-05  7.75526511E-05  8.27741693E-05  7.51202984E-05  5.92274126E-05  4.91812301E-05  5.42586087E-05  5.81737200E-05  7.78802030E-05  7.97392684E-05  4.56171547E-05  3.14216935E-05  2.67338498E-05  2.71766101E-05  4.17815297E-05  5.89577612E-05  8.44277868E-05  1.05077679E-04  1.04121941E-04  1.14210416E-04  1.42219802E-04  1.92592037E-04  2.55216379E-04  2.81365565E-04  2.09544436E-04  1.13629142E-04  7.04188831E-05  4.80618066E-05  3.70819937E-05  2.88952354E-05  3.12468646E-05  3.54305404E-05  6.13529526E-05  7.92934378E-05  8.57925188E-05  9.07454014E-05  9.78850165E-05  1.10290285E-04  1.28003355E-04  1.80349249E-04  3.43317066E-04  5.29647273E-04  8.11803310E-04       0.00120490       0.00130467       0.00144672       0.00119008  8.11505481E-04  5.35156229E-04  3.23518878E-04  2.01908144E-04  1.35702721E-04  8.71319498E-05  7.11582834E-05  5.95992642E-05  6.18890845E-05  7.05666389E-05  9.29922462E-05       1.00000000
      1.33665465E-06  1.59671936E-06  2.60957609E-06  3.98858037E-06  7.99829650E-06  1.52713092E-05  2.06041746E-05  2.35209838E-05  2.02686351E-05  1.44939368E-05  1.08701235E-05  1.18264848E-05  1.45764425E-05  1.81644762E-05  2.31407001E-05  2.45319039E-05  2.09183883E-05  1.78150338E-05  1.29816603E-05  1.02352024E-05  1.32726091E-05  1.72378835E-05  2.36556973E-05  4.07536489E-05  6.32732865E-05  8.16304985E-05  9.34123278E-05  1.12420181E-04  1.21577360E-04  1.36982941E-04  2.14762142E-04  2.62177637E-04  2.36875872E-04  2.10438142E-04  1.84821794E-04  1.27238731E-04  8.96506577E-05  7.18886565E-05  7.20624812E-05  9.26053423E-05  1.09294759E-04  1.13590329E-04  9.11344250E-05  8.80257382E-05  7.86896708E-05  6.20917999E-05  5.23979737E-05  5.00017079E-05  5.42164780E-05  6.59129000E-05  6.56266697E-05  5.45541407E-05  4.49897246E-05  3.74228427E-05  4.38020049E-05  6.67510280E-05  1.18495183E-04  1.55457630E-04  1.49091098E-04  1.50600293E-04  1.82723691E-04  2.23961943E-04  2.89706257E-04  3.86173966E-04  4.64119483E-04  3.03205672E-04  1.36366036E-04  6.48926103E-05  4.51105492E-05  3.03385443E-05  2.28167424E-05  2.28518591E-05  2.32453571E-05  3.49162923E-05  5.23564449E-05  6.00584359E-05  5.78072504E-05  4.86012108E-05  5.85504070E-05  8.38621183E-05  1.23479243E-04  1.96598853E-04  3.07397185E-04  4.48483275E-04  6.31845137E-04  7.62331591E-04  7.60575756E-04  7.06968363E-04  4.32735542E-04  2.60993285E-04  1.45109458E-04  7.77688692E-05  5.41746122E-05  3.39587714E-05  2.94474812E-05  2.71765057E-05  2.99295025E-05  4.42338569E-05  7.17314397E-05  6.14536257E-05
      2.50989691E-06  4.23399206E-06  6.87069360E-06  9.84006510E-06  1.85691915E-05  3.06432077E-05  4.15059912E-05  4.13210946E-05  3.83273815E-05  2.47998299E-05  2.00651601E-05  2.45663075E-05  2.77208746E-05  3.53863579E-05  4.15985269E-05  4.92333238E-05  3.72571114E-05  3.06505302E-05  2.44604307E-05  1.95807574E-05  2.61821231E-05  3.12747725E-05  5.04976924E-05  6.61821153E-05  7.42631964E-05  8.64820488E-05  1.05043674E-04  1.09476511E-04  1.31625711E-04  1.98180554E-04  3.48788686E-04  4.90699720E-04  4.30083572E-04  3.86769767E-04  3.25361121E-04  2.45950796E-04  1.84830365E-04  1.40978290E-04  1.32892115E-04  1.42864201E-04  1.83749711E-04  1.84221019E-04  1.21801296E-04  1.24775087E-04  1.14894695E-04  7.98636708E-05  5.55269556E-05  4.61997649E-05  5.89484232E-05  6.11066469E-05  6.22955267E-05  6.23530311E-05  6.08566479E-05  5.63699917E-05  6.37726085E-05  9.78397688E-05  1.59228836E-04  1.96594861E-04  1.85572993E-04  2.23460171E-04  3.11941478E-04  4.82084333E-04  5.10977995E-04  5.29062294E-04  5.32614707E-04  3.57056357E-04  1.67111284E-04  6.99409647E-05  3.58066645E-05  1.79051458E-05  1.56453498E-05  1.66641160E-05  2.28280987E-05  2.75506496E-05  3.29290742E-05  3.53676514E-05  2.59312073E-05  2.61672540E-05  3.50977837E-05  5.67225761E-05  6.88203509E-05  1.13645078E-04  1.76567035E-04  2.21198852E-04  3.05133328E-04  3.90858483E-04  4.19728109E-04  3.77232597E-04  2.61810172E-04  1.93671542E-04  9.96093731E-05  5.09271777E-05  3.11876138E-05  2.11910155E-05  1.71009524E-05  1.52872890E-05  1.90434475E-05  3.26410700E-05  5.16065884E-05  6.65598927E-05
      5.17055196E-06  1.03508064E-05  1.76915582E-05  2.49829791E-05  3.00335105E-05  4.65900841E-05  5.61757071E-05  5.93983103E-05  5.49131539E-05  4.45430574E-05  3.73929361E-05  4.70730709E-05  5.68009506E-05  6.95669849E-05  6.38593337E-05  7.35383219E-05  5.71447126E-05  4.56587761E-05  4.14986396E-05  4.22265555E-05  5.17193286E-05  7.23928621E-05  1.04491424E-04  1.17241230E-04  1.27957998E-04  1.36820849E-04  1.69386888E-04  1.90978884E-04  2.02038136E-04  2.50692660E-04  4.50248830E-04  6.25622976E-04  7.08112959E-04  6.88873290E-04  5.17764944E-04  4.80795396E-04  3.54451593E-04  2.78499559E-04  2.91328819E-04  2.90518593E-04  3.25716101E-04  2.80032200E-04  1.94312971E-04  1.76953933E-04  1.66398570E-04  1.23479219E-04  9.13147524E-05  8.33841041E-05  8.52931349E-05  7.72347994E-05  8.28625149E-05  8.48140723E-05  9.52231543E-05  8.61699615E-05  1.11054280E-04  1.74451237E-04  2.31174453E-04  2.59536260E-04  2.20751623E-04  2.78168882E-04  4.79714363E-04  5.82228764E-04  7.78155576E-04  6.07578017E-04  4.40311967E-04  2.09050738E-04  1.21950604E-04  5.66517119E-05  3.14989468E-05  1.80309954E-05  1.93617670E-05  1.91004914E-05  1.81209584E-05  1.80268495E-05  1.97992841E-05  1.97102927E-05  1.51110953E-05  1.57094021E-05  2.25119584E-05  3.41256782E-05  4.15914183E-05  5.30507158E-05  8.05211187E-05  1.04664059E-04  1.64713885E-04  2.29231105E-04  2.94233643E-04  2.58960936E-04  1.96095634E-04  1.61755961E-04  1.06152736E-04  4.48903302E-05  2.59641838E-05  1.80470943E-05  1.29848340E-05  1.26871473E-05  1.68595216E-05  2.73001388E-05  4.87333928E-05  7.04994964E-05
      1.16326786E-05  2.30767000E-05  4.13083544E-05  5.00164278E-05  6.20435807E-05  8.50486453E-05  7.38814939E-05  6.25710119E-05  6.33342133E-05  6.58887206E-05  6.29953633E-05  6.29038783E-05  1.00723852E-04  1.25267019E-04  1.13132490E-04  8.05263990E-05  6.80118246E-05  6.13946613E-05  5.78380495E-05  6.25127577E-05  8.56350001E-05  1.22538523E-04  1.93814898E-04  1.94121928E-04  1.90078766E-04  2.35681306E-04  2.68302625E-04  3.00462882E-04  4.08717548E-04  4.34099334E-04  5.19774182E-04  6.50368424E-04  9.32802550E-04       0.00101853       0.00107053  9.92759545E-04  8.09956756E-04  8.49866134E-04  7.67165446E-04  6.15529309E-04  5.72755733E-04  5.92736727E-04  4.52835811E-04  3.91450943E-04  3.22445548E-04  2.02305052E-04  1.56721013E-04  1.50989916E-04  1.18729239E-04  1.31495111E-04  1.18988586E-04  1.06134985E-04  1.01077225E-04  9.20756429E-05  1.28875991E-04  1.90639702E-04  2.64786832E-04  2.89968115E-04  2.71274575E-04  2.97924603E-04  5.44217715E-04  7.46242369E-04  7.25160741E-04  5.44006936E-04  3.92037164E-04  1.97371075E-04  1.07381120E-04  5.59345305E-05  3.68181624E-05  2.74687606E-05  2.20943184E-05  2.09609166E-05  1.63061809E-05  1.25544349E-05  1.18781746E-05  1.21045879E-05  1.11631299E-05  8.97851876E-06  1.28112653E-05  1.86243378E-05  2.57633346E-05  3.00004197E-05  4.62450428E-05  6.83020723E-05  1.03496490E-04  1.62349583E-04  2.15320964E-04  1.79038558E-04  1.45656969E-04  1.41257061E-04  9.71241680E-05  4.14877140E-05  2.43283976E-05  1.53491492E-05  1.07034020E-05  1.20007981E-05  1.83359844E-05  3.43584943E-05  5.76014208E-05  7.74633445E-05
      2.45249175E-05  4.76440400E-05  8.45469767E-05  9.80266486E-05  1.07388373E-04  1.32729171E-04  1.16196927E-04  1.04856130E-04  1.14174960E-04  1.38657750E-04  1.20852150E-04  9.64556355E-05  1.38394744E-04  1.66825543E-04  1.55096335E-04  9.46679938E-05  6.19725470E-05  5.65011105E-05  6.56503835E-05  8.25899988E-05  1.08306151E-04  2.22512614E-04  2.91074812E-04  3.27213629E-04  3.60400688E-04  4.21416347E-04  4.79248319E-04  5.25149866E-04  6.07127382E-04  7.77320471E-04  7.80787319E-04       0.00110674       0.00124979       0.00153461       0.00231163       0.00261425       0.00221071       0.00220538       0.00182903       0.00149606       0.00132959       0.00114154  9.49572306E-04  7.10850781E-04  5.73846550E-04  3.12572229E-04  2.12228838E-04  1.89545526E-04  1.68798340E-04  1.93799555E-04  1.72323734E-04  1.43255728E-04  1.11803907E-04  9.57923476E-05  1.29432379E-04  1.74619354E-04  2.07571196E-04  2.52580004E-04  2.96465703E-04  2.85615912E-04  3.92481033E-04  5.12959808E-04  6.19512144E-04  5.81433414E-04  4.66089812E-04  2.98003608E-04  1.59531843E-04  1.12885677E-04  8.10220420E-05  5.33372149E-05  3.89156889E-05  2.03448726E-05  1.52714085E-05  9.59191239E-06  9.24572588E-06  9.01365921E-06  6.66660708E-06  6.18363427E-06  6.61586900E-06  7.97046869E-06  1.05066774E-05  1.58631392E-05  2.96271464E-05  4.81910455E-05  7.67217037E-05  1.24491072E-04  1.61930942E-04  1.72348213E-04  1.24831349E-04  1.12113989E-04  6.75459742E-05  3.16527027E-05  2.06271179E-05  1.36379185E-05  1.21430839E-05  1.45293807E-05  2.47940425E-05  4.35844267E-05  6.87023785E-05  8.56231054E-05
      4.61374766E-05  7.17640651E-05  1.34203729E-04  1.68072537E-04  1.70096965E-04  1.83080428E-04  1.68020561E-04  1.54832087E-04  1.91822968E-04  2.53765378E-04  2.69743556E-04  2.20127869E-04  2.46692391E-04  2.58821936E-04  1.90771723E-04  8.96774291E-05  5.42211831E-05  4.08050473E-05  6.06747635E-05  8.16792526E-05  1.30543922E-04  2.70912726E-04  3.28784133E-04  4.44895549E-04  5.18792464E-04  6.01159741E-04  6.87271490E-04  7.42818753E-04  9.23505519E-04       0.00129255       0.00142616       0.00173318       0.00176737       0.00245561       0.00332127       0.00454255       0.00605059       0.00628276       0.00440546       0.00329507       0.00318883       0.00266819       0.00194993       0.00116744  8.96870314E-04  5.53454234E-04  2.93224914E-04  2.09509954E-04  1.53763895E-04  1.63732830E-04  1.86397601E-04  1.84565515E-04  1.35683478E-04  9.85798310E-05  1.34163711E-04  1.89167098E-04  2.08597708E-04  2.30933637E-04  2.21879617E-04  2.37262851E-04  2.46849755E-04  3.70466994E-04  5.40466921E-04  7.65134115E-04  5.68302814E-04  4.18439081E-04  2.54901184E-04  1.92033336E-04  1.28062054E-04  7.41459329E-05  3.98941435E-05  2.09024406E-05  1.15193798E-05  7.80190829E-06  6.96246005E-06  7.48511795E-06  5.74346066E-06  4.83489324E-06  3.69868849E-06  3.85383464E-06  6.08495611E-06  1.07534561E-05  1.74438548E-05  3.15686172E-05  5.01715071E-05  8.77940717E-05  1.15606957E-04  1.20413862E-04  1.10290566E-04  9.64950110E-05  5.69404995E-05  2.98964054E-05  1.96638794E-05  1.49102755E-05  1.57896156E-05  2.22680810E-05  4.31621738E-05  6.76071722E-05  9.60969046E-05  1.14589348E-04
      5.41410081E-05  8.40423891E-05  1.63336008E-04  2.21906765E-04  2.56260694E-04  2.91160285E-04  2.55899446E-04  2.57934415E-04  3.16938211E-04  4.44131554E-04  4.73952183E-04  3.60663980E-04  3.67770961E-04  3.94692208E-04  2.68319331E-04  1.23032621E-04  5.92899111E-05  4.94880417E-05  6.51388182E-05  1.03266764E-04  1.82191172E-04  3.50587768E-04  4.23276145E-04  5.40634384E-04  6.51097468E-04  6.39748760E-04  7.73919347E-04  9.04697459E-04       0.00109106       0.00141687       0.00172092       0.00188537       0.00239310       0.00301580       0.00393268       0.00628703       0.01020183       0.01261221       0.01015324       0.00821428       0.00727781       0.00557927       0.00349497       0.00214512       0.00136818  7.78549972E-04  4.20679664E-04  2.39945925E-04  1.55498856E-04  1.24359550E-04  1.23115387E-04  1.24011457E-04  9.73475864E-05  8.46331939E-05  1.19469222E-04  1.39708619E-04  1.33366394E-04  1.60598615E-04  1.68470389E-04  1.63238728E-04  1.95587209E-04  2.49565540E-04  4.10272701E-04  6.10515165E-04  7.38954560E-04  7.32914622E-04  5.05894539E-04  3.84422805E-04  2.42719446E-04  1.08944502E-04  4.83700132E-05  2.21821570E-05  9.86300842E-06  5.92978702E-06  5.86283123E-06  6.19297225E-06  5.06948300E-06  3.92948550E-06  2.80169229E-06  2.69514385E-06  3.64907874E-06  6.68812390E-06  1.17834816E-05  1.97681262E-05  3.27501309E-05  5.88796732E-05  7.14120251E-05  9.25775734E-05  1.05912557E-04  9.11764073E-05  6.04679129E-05  3.81209272E-05  2.83866296E-05  2.15241865E-05  2.75317834E-05  4.50118896E-05  8.57816776E-05  1.29325766E-04  1.54255031E-04  1.65627760E-04
      6.33462987E-05  9.94581205E-05  1.93803047E-04  2.48566677E-04  3.05216381E-04  3.68521782E-04  3.99781507E-04  4.99943271E-04  5.27158962E-04  6.07786060E-04  5.69597294E-04  5.40892244E-04  5.21262526E-04  4.72534855E-04  2.95380984E-04  1.79495119E-04  9.06154940E-05  7.39922179E-05  9.06135392E-05  1.13073140E-04  2.09189107E-04  3.36809829E-04  4.50860895E-04  5.93550930E-04  7.12380279E-04  7.73627444E-04  8.46737663E-04  9.93545400E-04       0.00102414       0.00111245       0.00134924       0.00164534       0.00249397       0.00302636       0.00411260       0.00684989       0.01269893       0.02290251       0.02523539       0.02037734       0.01386505       0.01044887       0.00592423       0.00330687       0.00188012  9.03568696E-04  4.84679127E-04  2.74932338E-04  1.70050975E-04  1.07595697E-04  8.87313508E-05  8.82450913E-05  6.74564726E-05  6.08227856E-05  7.85572745E-05  9.16702673E-05  9.13663825E-05  1.06580388E-04  1.17673636E-04  1.18735974E-04  1.60774507E-04  2.00692593E-04  3.69763273E-04  5.28539337E-04  7.88402821E-04       0.00116921       0.00100578  5.46589959E-04  2.95363087E-04  1.39374887E-04  6.01572065E-05  2.29655889E-05  9.67022061E-06  6.70332838E-06  5.50588584E-06  4.80336621E-06  4.08083133E-06  3.84436953E-06  2.09044674E-06  2.11831752E-06  3.31084311E-06  5.58445572E-06  1.05134428E-05  1.53866682E-05  2.12711644E-05  3.77629258E-05  4.47795028E-05  6.55948999E-05  9.26755965E-05  8.96420679E-05  7.37107330E-05  6.97823222E-05  5.55797742E-05  4.31460309E-05  5.33747079E-05  8.56131301E-05  1.72692598E-04  2.45458563E-04  2.57599837E-04  2.59633001E-04