# File generated by Flopy version 3.9.1 on 06/11/2025 at 10:23:19.
BEGIN options
  COMPLEXITY  simple
END options

