# File generated by Flopy version 3.9.2 on 06/23/2025 at 08:56:11.
BEGIN options
  COMPLEXITY  moderate
END options

