# File generated by Flopy version 3.9.1 on 07/02/2025 at 17:31:52.
BEGIN options
  COMPLEXITY  moderate
END options

