# File generated by Flopy version 3.9.2 on 06/16/2025 at 16:32:44.
BEGIN options
  COMPLEXITY  simple
END options

