# File generated by Flopy version 3.9.2 on 06/26/2025 at 10:55:01.
BEGIN options
  COMPLEXITY  moderate
END options

