# File generated by Flopy version 3.9.2 on 06/19/2025 at 14:05:38.
BEGIN options
  COMPLEXITY  moderate
END options

