# File generated by Flopy version 3.9.2 on 09/04/2025 at 10:33:04.
BEGIN options
  COMPLEXITY  moderate
END options

