# File generated by Flopy version 3.9.1 on 06/11/2025 at 14:34:52.
BEGIN options
  XORIGIN       0.00000000
  YORIGIN       0.00000000
  ANGROT       0.00000000
END options

BEGIN dimensions
  NLAY  5
  NROW  70
  NCOL  140
END dimensions

BEGIN griddata
  delr
    CONSTANT       1.50000000
  delc
    CONSTANT       1.50000000
  top
    INTERNAL  FACTOR  1.0
        -6.00000000      -6.00000000      -6.00000000      -6.00000000      -6.00000000      -6.00000000      -5.98999977      -5.98999977      -5.98999977      -5.98999977      -5.98999977      -5.98999977      -5.98999977      -5.98999977      -5.98999977      -6.00000000      -6.00000000      -6.00000000      -6.00000000      -6.00000000      -6.00000000      -6.00000000      -6.00000000      -6.00000000      -6.00000000      -6.00000000      -6.00000000      -6.00000000      -6.00000000      -6.00000000      -6.00000000      -6.00000000      -6.00000000      -6.00000000      -6.00000000      -6.00000000      -6.00000000      -6.00000000      -6.00000000      -6.00000000      -6.00000000      -6.00000000      -6.00000000      -6.00000000      -6.00000000      -6.00000000      -6.00000000      -6.00000000      -6.00000000      -6.00000000      -6.00000000      -6.00000000      -6.00000000      -6.00000000      -6.00000000      -6.00000000      -6.00000000      -6.00000000      -6.00000000      -6.00000000      -6.00000000      -6.00000000      -6.00000000      -6.00000000      -6.00000000      -6.00000000      -6.00000000      -6.00000000      -6.00000000      -6.00000000      -6.00000000      -6.00000000      -6.00000000      -6.00000000      -6.00000000      -6.00000000      -6.00000000      -6.00000000      -6.00000000      -6.00000000      -6.00000000      -6.00000000      -6.00000000      -6.00000000      -6.00000000      -6.00000000      -6.00000000      -6.00000000      -6.00000000      -6.00000000      -6.00000000      -6.00000000      -6.00000000      -6.00000000      -6.00000000      -6.00000000      -6.00000000      -6.00000000      -6.00000000      -6.00000000      -6.00000000      -6.00000000      -6.00000000      -6.00000000      -6.00000000      -6.00000000      -6.00000000      -6.00000000      -6.00000000      -6.00000000      -6.00000000      -6.00000000      -6.00000000      -6.00000000      -6.00000000      -6.00000000      -6.00000000      -6.00000000      -6.00000000      -6.00000000      -6.00000000      -6.00000000      -6.00000000      -6.00000000      -6.00000000      -6.00000000      -6.00000000      -6.00000000      -6.00000000      -6.00000000      -6.00000000      -6.00000000      -6.00000000      -6.00000000      -6.00000000      -6.00000000      -6.00000000      -6.00000000      -6.00000000      -6.00000000
        -6.00000000      -6.00000000      -6.00000000      -6.00000000      -6.00000000      -6.00000000      -6.00000000      -6.00000000      -5.98999977      -5.98999977      -5.98999977      -5.98999977      -5.98999977      -5.98999977      -5.98999977      -6.00000000      -6.00000000      -6.00000000      -6.00000000      -6.00000000      -6.00000000      -6.00000000      -6.00000000      -6.00000000      -6.00000000      -6.00000000      -6.00000000      -6.00000000      -6.00000000      -6.00000000      -6.00000000      -6.00000000      -6.00000000      -6.00000000      -6.00000000      -6.00000000      -6.00000000      -6.00000000      -6.00000000      -6.00000000      -6.00000000      -6.00000000      -6.00000000      -6.00000000      -6.00000000      -6.00000000      -6.00000000      -6.00000000      -6.00000000      -6.00000000      -6.00000000      -6.00000000      -6.00000000      -6.00000000      -6.00000000      -6.00000000      -6.00000000      -6.00000000      -6.00000000      -6.00000000      -6.00000000      -6.00000000      -6.00000000      -6.00000000      -6.00000000      -6.00000000      -6.00000000      -6.00000000      -6.00000000      -6.00000000      -6.00000000      -6.00000000      -6.00000000      -6.00000000      -6.00000000      -6.00000000      -6.00000000      -6.00000000      -6.00000000      -6.00000000      -6.00000000      -6.00000000      -6.00000000      -6.00000000      -6.00000000      -6.00000000      -6.00000000      -6.00000000      -6.00000000      -6.00000000      -6.00000000      -6.00000000      -6.00000000      -6.00000000      -6.00000000      -6.00000000      -6.00000000      -6.00000000      -6.00000000      -6.00000000      -6.00000000      -6.00000000      -6.00000000      -6.00000000      -6.00000000      -6.00000000      -6.00000000      -6.00000000      -6.00000000      -6.00000000      -6.00000000      -6.00000000      -6.00000000      -6.00000000      -6.00000000      -6.00000000      -6.00000000      -6.00000000      -6.00000000      -6.00000000      -6.00000000      -6.00000000      -6.00000000      -6.00000000      -6.00000000      -6.00000000      -6.00000000      -6.00000000      -6.00000000      -6.00000000      -6.00000000      -6.00000000      -6.00000000      -6.00000000      -6.00000000      -6.00000000      -6.00000000      -6.00000000      -6.00000000      -6.00000000
        -6.00000000      -6.00000000      -6.00000000      -6.00000000      -6.00000000      -6.00000000      -6.00000000      -6.00000000      -6.00000000      -6.00000000      -5.98999977      -5.98999977      -5.98999977      -5.98999977      -5.98999977      -6.00000000      -6.00000000      -6.00000000      -6.00000000      -6.00000000      -6.00000000      -6.00000000      -6.00000000      -6.00000000      -6.00000000      -6.00000000      -6.00000000      -6.00000000      -6.00000000      -6.00000000      -6.00000000      -6.00000000      -6.00000000      -6.00000000      -6.00000000      -6.00000000      -6.00000000      -6.00000000      -6.00000000      -6.00000000      -6.00000000      -6.00000000      -6.00000000      -6.00000000      -6.00000000      -6.00000000      -6.00000000      -6.00000000      -6.00000000      -6.00000000      -6.00000000      -6.00000000      -6.00000000      -6.00000000      -6.00000000      -6.00000000      -6.00000000      -6.00000000      -6.00000000      -6.00000000      -6.00000000      -6.00000000      -6.00000000      -6.00000000      -6.00000000      -6.00000000      -6.00000000      -6.00000000      -6.00000000      -6.00000000      -6.00000000      -6.00000000      -6.00000000      -6.00000000      -6.00000000      -6.00000000      -6.00000000      -6.00000000      -6.00000000      -6.00000000      -6.00000000      -6.00000000      -6.00000000      -6.00000000      -6.00000000      -6.00000000      -6.00000000      -6.00000000      -6.00000000      -6.00000000      -6.00000000      -6.00000000      -6.00000000      -6.00000000      -6.00000000      -6.00000000      -6.00000000      -6.00000000      -6.00000000      -6.00000000      -6.00000000      -6.00000000      -6.00000000      -6.00000000      -6.00000000      -6.00000000      -6.00000000      -6.00000000      -6.00000000      -6.00000000      -6.00000000      -6.00000000      -6.00000000      -6.00000000      -6.00000000      -6.00000000      -6.00000000      -6.00000000      -6.00000000      -6.00000000      -6.00000000      -6.00000000      -6.00000000      -6.00000000      -6.00000000      -6.00000000      -6.00000000      -6.00000000      -6.00000000      -6.00000000      -6.00000000      -6.00000000      -6.00000000      -6.00000000      -6.00000000      -6.00000000      -6.00000000      -6.00000000      -6.00000000      -6.00000000
        -6.00000000      -6.00000000      -6.00000000      -6.00000000      -6.00000000      -6.00000000      -6.00000000      -6.00000000      -6.00000000      -6.00000000      -6.00000000      -5.98999977      -5.98999977      -5.98999977      -6.00000000      -6.00000000      -6.00000000      -6.00000000      -6.00000000      -6.00000000      -6.00000000      -6.00000000      -6.00000000      -6.00000000      -6.00000000      -6.00000000      -6.00000000      -6.00000000      -6.00000000      -6.00000000      -6.00000000      -6.00000000      -6.00000000      -6.00000000      -6.00000000      -6.00000000      -6.00000000      -6.00000000      -6.00000000      -6.00000000      -6.00000000      -6.00000000      -6.00000000      -6.00000000      -6.00000000      -6.00000000      -6.00000000      -6.00000000      -6.00000000      -6.00000000      -6.00000000      -6.00000000      -6.00000000      -6.00000000      -6.00000000      -6.00000000      -6.00000000      -6.00000000      -6.00000000      -6.00000000      -6.00000000      -6.00000000      -6.00000000      -6.00000000      -6.00000000      -6.00000000      -6.00000000      -6.00000000      -6.00000000      -6.00000000      -6.00000000      -6.00000000      -6.00000000      -6.00000000      -6.00000000      -6.00000000      -6.00000000      -6.00000000      -6.00000000      -6.00000000      -6.00000000      -6.00000000      -6.00000000      -6.00000000      -6.00000000      -6.00000000      -6.00000000      -6.00000000      -6.00000000      -6.00000000      -6.00000000      -6.00000000      -6.00000000      -6.00000000      -6.00000000      -6.00000000      -6.00000000      -6.00000000      -6.00000000      -6.00000000      -6.00000000      -6.00000000      -6.00000000      -6.00000000      -6.00000000      -6.00000000      -6.00000000      -6.00000000      -6.00000000      -6.00000000      -6.00000000      -6.00000000      -6.00000000      -6.00000000      -6.00000000      -6.00000000      -6.00000000      -6.00000000      -6.00000000      -6.00000000      -6.00000000      -6.00000000      -6.00000000      -6.00000000      -6.00000000      -6.00000000      -6.00000000      -6.00000000      -6.00000000      -6.00000000      -6.00000000      -6.00000000      -6.00000000      -6.00000000      -6.00000000      -6.00000000      -6.00000000      -6.00000000      -6.00000000      -6.00000000
        -6.00000000      -6.00000000      -6.00000000      -6.00000000      -6.00000000      -6.00000000      -6.00000000      -6.00000000      -6.00000000      -6.00000000      -6.00000000      -6.00000000      -6.00000000      -6.00000000      -6.00000000      -6.00000000      -6.00000000      -6.00000000      -6.00000000      -6.00000000      -6.00000000      -6.00000000      -6.00000000      -6.00000000      -6.00000000      -6.00000000      -6.00000000      -6.00000000      -6.00000000      -6.00000000      -6.00000000      -6.00000000      -6.00000000      -6.00000000      -6.00000000      -6.00000000      -6.00000000      -6.00000000      -6.00000000      -6.00000000      -6.00000000      -6.00000000      -6.00000000      -6.00000000      -6.00000000      -6.00000000      -6.00000000      -6.00000000      -6.00000000      -6.00000000      -6.00000000      -6.00000000      -6.00000000      -6.00000000      -6.00000000      -6.00000000      -6.00000000      -6.00000000      -6.00000000      -6.00000000      -6.00000000      -6.00000000      -6.00000000      -6.00000000      -6.00000000      -6.00000000      -6.00000000      -6.00000000      -6.00000000      -6.00000000      -6.00000000      -6.00000000      -6.00000000      -6.00000000      -6.00000000      -6.00000000      -6.00000000      -6.00000000      -6.00000000      -6.00000000      -6.00000000      -6.00000000      -6.00000000      -6.00000000      -6.00000000      -6.00000000      -6.00000000      -6.00000000      -6.00000000      -6.00000000      -6.00000000      -6.00000000      -6.00000000      -6.00000000      -6.00000000      -6.00000000      -6.00000000      -6.00000000      -6.00000000      -6.00000000      -6.00000000      -6.00000000      -6.00000000      -6.00000000      -6.00000000      -6.00000000      -6.00000000      -6.00000000      -6.00000000      -6.00000000      -6.00000000      -6.00000000      -6.00000000      -6.00000000      -6.00000000      -6.00000000      -6.00000000      -6.00000000      -6.00000000      -6.00000000      -6.00000000      -6.00000000      -6.00000000      -6.00000000      -6.00000000      -6.00000000      -6.00000000      -6.00000000      -6.00000000      -6.00000000      -6.00000000      -6.00000000      -6.00000000      -6.00000000      -6.00000000      -6.00000000      -6.00000000      -6.00000000      -6.00000000      -6.00000000
        -6.00000000      -6.00000000      -6.00000000      -6.00000000      -6.00000000      -6.00000000      -6.00000000      -6.00000000      -6.00000000      -6.00000000      -6.00000000      -6.00000000      -6.00000000      -6.00000000      -6.00000000      -6.00000000      -6.00000000      -6.00000000      -6.00000000      -6.00000000      -6.00000000      -6.00000000      -6.00000000      -6.00000000      -6.00000000      -6.00000000      -6.00000000      -6.00000000      -6.00000000      -6.00000000      -6.00000000      -6.00000000      -6.00000000      -6.00000000      -6.00000000      -6.00000000      -6.00000000      -6.00000000      -6.00000000      -6.00000000      -6.00000000      -6.00000000      -6.00000000      -6.00000000      -6.00000000      -6.00000000      -6.00000000      -6.00000000      -6.00000000      -6.00000000      -6.00000000      -6.00000000      -6.00000000      -6.00000000      -6.00000000      -6.00000000      -6.00000000      -6.00000000      -6.00000000      -6.00000000      -6.00000000      -6.00000000      -6.00000000      -6.00000000      -6.00000000      -6.00000000      -6.00000000      -6.00000000      -6.00000000      -6.00000000      -6.00000000      -6.00000000      -6.00000000      -6.00000000      -6.00000000      -6.00000000      -6.00000000      -6.00000000      -6.00000000      -6.00000000      -6.00000000      -6.00000000      -6.00000000      -6.00000000      -6.00000000      -6.00000000      -6.00000000      -6.00000000      -6.00000000      -6.00000000      -6.00000000      -6.00000000      -6.00000000      -6.00000000      -6.00000000      -6.00000000      -6.00000000      -6.00000000      -6.00000000      -6.00000000      -6.00000000      -6.00000000      -6.00000000      -6.00000000      -6.00000000      -6.00000000      -6.00000000      -6.00000000      -6.00000000      -6.00000000      -6.00000000      -6.00000000      -6.00000000      -6.00000000      -6.00000000      -6.00000000      -6.00000000      -6.00000000      -6.00000000      -6.00000000      -6.00000000      -6.00000000      -6.00000000      -6.00000000      -6.00000000      -6.00000000      -6.00000000      -6.00000000      -6.00000000      -6.00000000      -6.00000000      -6.00000000      -6.00000000      -6.00000000      -6.00000000      -6.00000000      -6.00000000      -6.00000000      -6.00000000      -6.00000000
        -6.00000000      -6.00000000      -6.00000000      -6.00000000      -6.00000000      -6.00000000      -6.00000000      -6.00000000      -6.00000000      -6.00000000      -6.00000000      -6.00000000      -6.00000000      -6.00000000      -6.00000000      -6.00000000      -6.00000000      -6.00000000      -6.00000000      -6.00000000      -6.00000000      -6.00000000      -6.00000000      -6.00000000      -6.00000000      -6.00000000      -6.00000000      -6.00000000      -6.00000000      -6.00000000      -6.00000000      -6.00000000      -6.00000000      -6.00000000      -6.00000000      -6.00000000      -6.00000000      -6.00000000      -6.00000000      -6.00000000      -6.00000000      -6.00000000      -6.00000000      -6.00000000      -6.00000000      -6.00000000      -6.00000000      -6.00000000      -6.00000000      -6.00000000      -6.00000000      -6.00000000      -6.00000000      -6.00000000      -6.00000000      -6.00000000      -6.00000000      -6.00000000      -6.00000000      -6.00000000      -6.00000000      -6.00000000      -6.00000000      -6.00000000      -6.00000000      -6.00000000      -6.00000000      -6.00000000      -6.00000000      -6.00000000      -6.00000000      -6.00000000      -6.00000000      -6.00000000      -6.00000000      -6.00000000      -6.00000000      -6.00000000      -6.00000000      -6.00000000      -6.00000000      -6.00000000      -6.00000000      -6.00000000      -6.00000000      -6.00000000      -6.00000000      -6.00000000      -6.00000000      -6.00000000      -6.00000000      -6.00000000      -6.00000000      -6.00000000      -6.00000000      -6.00000000      -6.00000000      -6.00000000      -6.00000000      -6.00000000      -6.00000000      -6.00000000      -6.00000000      -6.00000000      -6.00000000      -6.00000000      -6.00000000      -6.00000000      -6.00000000      -6.00000000      -6.00000000      -6.00000000      -6.00000000      -6.00000000      -6.00000000      -6.00000000      -6.00000000      -6.00000000      -6.00000000      -6.00000000      -6.00000000      -6.00000000      -6.00000000      -6.00000000      -6.00000000      -6.00000000      -6.00000000      -6.00000000      -6.00000000      -6.00000000      -6.00000000      -6.00000000      -6.00000000      -6.00000000      -6.00000000      -6.00000000      -6.00000000      -6.00000000      -6.00000000      -6.00000000
        -6.00000000      -6.00000000      -6.00000000      -6.00000000      -6.00000000      -6.00000000      -6.00000000      -6.00000000      -6.00000000      -6.00000000      -6.00000000      -6.00000000      -6.00000000      -6.00000000      -6.00000000      -6.00000000      -6.00000000      -6.00000000      -6.00000000      -6.00000000      -6.00000000      -6.00000000      -6.00000000      -6.00000000      -6.00000000      -6.00000000      -6.00000000      -6.00000000      -6.00000000      -6.00000000      -6.00000000      -6.00000000      -6.00000000      -6.00000000      -6.00000000      -6.00000000      -6.00000000      -6.00000000      -6.00000000      -6.00000000      -6.00000000      -6.00000000      -6.00000000      -6.00000000      -6.00000000      -6.00000000      -6.00000000      -6.00000000      -6.00000000      -6.00000000      -6.00000000      -6.00000000      -6.00000000      -6.00000000      -6.00000000      -6.00000000      -6.00000000      -6.00000000      -6.00000000      -6.00000000      -6.00000000      -6.00000000      -6.00000000      -6.00000000      -6.00000000      -6.00000000      -6.00000000      -6.00000000      -6.00000000      -6.00000000      -6.00000000      -6.00000000      -6.00000000      -6.00000000      -6.00000000      -6.00000000      -6.00000000      -6.00000000      -6.00000000      -6.00000000      -6.00000000      -6.00000000      -6.00000000      -6.00000000      -6.00000000      -6.00000000      -6.00000000      -6.00000000      -6.00000000      -6.00000000      -6.00000000      -6.00000000      -6.00000000      -6.00000000      -6.00000000      -6.00000000      -6.00000000      -6.00000000      -6.00000000      -6.00000000      -6.00000000      -6.00000000      -6.00000000      -6.00000000      -6.00000000      -6.00000000      -6.00000000      -6.00000000      -6.00000000      -6.00000000      -6.00000000      -6.00000000      -6.00000000      -6.00000000      -6.00000000      -6.00000000      -6.00000000      -6.00000000      -6.00000000      -6.00000000      -6.00000000      -6.00000000      -6.00000000      -6.00000000      -6.00000000      -6.00000000      -6.00000000      -6.00000000      -6.00000000      -6.00000000      -6.00000000      -6.00000000      -6.00000000      -6.00000000      -6.00000000      -6.00000000      -6.00000000      -6.00000000      -6.00000000      -6.00000000
        -6.00000000      -6.00000000      -6.00000000      -6.00000000      -6.00000000      -6.00000000      -6.00000000      -6.00000000      -6.00000000      -6.00000000      -6.00000000      -6.00000000      -6.00000000      -6.00000000      -6.00000000      -6.00000000      -6.00000000      -6.00000000      -6.00000000      -6.00000000      -6.00000000      -6.00000000      -6.00000000      -6.00000000      -6.00000000      -6.00000000      -6.00000000      -6.00000000      -6.00000000      -6.00000000      -6.00000000      -6.00000000      -6.00000000      -6.00000000      -6.00000000      -6.00000000      -6.00000000      -6.00000000      -6.00000000      -6.00000000      -6.00000000      -6.00000000      -6.00000000      -6.00000000      -6.00000000      -6.00000000      -6.00000000      -6.00000000      -6.00000000      -6.00000000      -6.00000000      -6.00000000      -6.00000000      -6.00000000      -6.00000000      -6.00000000      -6.00000000      -6.00000000      -6.00000000      -6.00000000      -6.00000000      -6.00000000      -6.00000000      -6.00000000      -6.00000000      -6.00000000      -6.00000000      -6.00000000      -6.00000000      -6.00000000      -6.00000000      -6.00000000      -6.00000000      -6.00000000      -6.00000000      -6.00000000      -6.00000000      -6.00000000      -6.00000000      -6.00000000      -6.00000000      -6.00000000      -6.00000000      -6.00000000      -6.00000000      -6.00000000      -6.00000000      -6.00000000      -6.00000000      -6.00000000      -6.00000000      -6.00000000      -6.00000000      -6.00000000      -6.00000000      -6.00000000      -6.00000000      -6.00000000      -6.00000000      -6.00000000      -6.00000000      -6.00000000      -6.00000000      -6.00000000      -6.00000000      -6.00000000      -6.00000000      -6.00000000      -6.00000000      -6.00000000      -6.00000000      -6.00000000      -6.00000000      -6.00000000      -6.00000000      -6.00000000      -6.00000000      -6.00000000      -6.00000000      -6.00000000      -6.00000000      -6.00000000      -6.00000000      -6.00000000      -6.00000000      -6.00000000      -6.00000000      -6.00000000      -6.00000000      -6.00000000      -6.00000000      -6.00000000      -6.00000000      -6.00000000      -6.00000000      -6.00000000      -6.00000000      -6.00000000      -6.00000000      -6.00000000
        -6.00000000      -6.00000000      -6.00000000      -6.00000000      -6.00000000      -6.00000000      -6.00000000      -6.00000000      -6.00000000      -6.00000000      -6.00000000      -6.00000000      -6.00000000      -6.00000000      -6.00000000      -6.00000000      -6.00000000      -6.00000000      -6.00000000      -6.00000000      -6.00000000      -6.00000000      -6.00000000      -6.00000000      -6.00000000      -6.00000000      -6.00000000      -6.00000000      -6.00000000      -6.00000000      -6.00000000      -6.00000000      -6.00000000      -6.00000000      -6.00000000      -6.00000000      -6.00000000      -6.00000000      -6.00000000      -6.00000000      -6.00000000      -6.00000000      -6.00000000      -6.00000000      -6.00000000      -6.00000000      -6.00000000      -6.00000000      -6.00000000      -6.00000000      -6.00000000      -6.00000000      -6.00000000      -6.00000000      -6.00000000      -6.00000000      -6.00000000      -6.00000000      -6.00000000      -6.00000000      -6.00000000      -6.00000000      -6.00000000      -6.00000000      -6.00000000      -6.00000000      -6.00000000      -6.00000000      -6.00000000      -6.00000000      -6.00000000      -6.00000000      -6.00000000      -6.00000000      -6.00000000      -6.00000000      -6.00000000      -6.00000000      -6.00000000      -6.00000000      -6.00000000      -6.00000000      -6.00000000      -6.00000000      -6.00000000      -6.00000000      -6.00000000      -6.00000000      -6.00000000      -6.00000000      -6.00000000      -6.00000000      -6.00000000      -6.00000000      -6.00000000      -6.00000000      -6.00000000      -6.00000000      -6.00000000      -6.00000000      -6.00000000      -6.00000000      -6.00000000      -6.00000000      -6.00000000      -6.00000000      -6.00000000      -6.00000000      -6.00000000      -6.00000000      -6.00000000      -6.00000000      -6.00000000      -6.00000000      -6.00000000      -6.00000000      -6.00000000      -6.00000000      -6.00000000      -6.00000000      -6.00000000      -6.00000000      -6.00000000      -6.00000000      -6.00000000      -6.00000000      -6.00000000      -6.00000000      -6.00000000      -6.00000000      -6.00000000      -6.00000000      -6.00000000      -6.00000000      -6.00000000      -6.00000000      -6.00000000      -6.00000000      -6.00000000      -6.00000000
        -6.00000000      -6.00000000      -6.00000000      -6.00000000      -6.00000000      -6.00000000      -6.00000000      -6.00000000      -6.00000000      -6.00000000      -6.00000000      -6.00000000      -6.00000000      -6.00000000      -6.00000000      -6.00000000      -6.00000000      -6.00000000      -6.00000000      -6.00000000      -6.00000000      -6.00000000      -6.00000000      -6.00000000      -6.00000000      -6.00000000      -6.00000000      -6.00000000      -6.00000000      -6.00000000      -6.00000000      -6.00000000      -6.00000000      -6.00000000      -6.00000000      -6.00000000      -6.00000000      -6.00000000      -6.00000000      -6.00000000      -6.00000000      -6.00000000      -6.00000000      -6.00000000      -6.00000000      -6.00000000      -6.00000000      -6.00000000      -6.00000000      -6.00000000      -6.00000000      -6.00000000      -6.00000000      -6.00000000      -6.00000000      -6.00000000      -6.00000000      -6.00000000      -6.00000000      -6.00000000      -6.00000000      -6.00000000      -6.00000000      -6.00000000      -6.00000000      -6.00000000      -6.00000000      -6.00000000      -6.00000000      -6.00000000      -6.00000000      -6.00000000      -6.00000000      -6.00000000      -6.00000000      -6.00000000      -6.00000000      -6.00000000      -6.00000000      -6.00000000      -6.00000000      -6.00000000      -6.00000000      -6.00000000      -6.00000000      -6.00000000      -6.00000000      -6.00000000      -6.00000000      -6.00000000      -6.00000000      -6.00000000      -6.00000000      -6.00000000      -6.00000000      -6.00000000      -6.00000000      -6.00000000      -6.00000000      -6.00000000      -6.00000000      -6.00000000      -6.00000000      -6.00000000      -6.00000000      -6.00000000      -6.00000000      -6.00000000      -6.00000000      -6.00000000      -6.00000000      -6.00000000      -6.00000000      -6.00000000      -6.00000000      -6.00000000      -6.00000000      -6.00000000      -6.00000000      -6.00000000      -6.00000000      -6.00000000      -6.00000000      -6.00000000      -6.00000000      -6.00000000      -6.00000000      -6.00000000      -6.00000000      -6.00000000      -6.00000000      -6.00000000      -6.00000000      -6.00000000      -6.00000000      -6.00000000      -6.00000000      -6.00000000      -6.00000000      -6.00000000
        -6.00000000      -6.00000000      -6.00000000      -6.00000000      -6.00000000      -6.00000000      -6.00000000      -6.00000000      -6.00000000      -6.00000000      -6.00000000      -6.00000000      -6.00000000      -6.00000000      -6.00000000      -6.00000000      -6.00000000      -6.00000000      -6.00000000      -6.00000000      -6.00000000      -6.00000000      -6.00000000      -6.00000000      -6.00000000      -6.00000000      -6.00000000      -6.00000000      -6.00000000      -6.00000000      -6.00000000      -6.00000000      -6.00000000      -6.00000000      -6.00000000      -6.00000000      -6.00000000      -6.00000000      -6.00000000      -6.00000000      -6.00000000      -6.00000000      -6.00000000      -6.00000000      -6.00000000      -6.00000000      -6.00000000      -6.00000000      -6.00000000      -6.00000000      -6.00000000      -6.00000000      -6.00000000      -6.00000000      -6.00000000      -6.00000000      -6.00000000      -6.00000000      -6.00000000      -6.00000000      -6.00000000      -6.00000000      -6.00000000      -6.00000000      -6.00000000      -6.00000000      -6.00000000      -6.00000000      -6.00000000      -6.00000000      -6.00000000      -6.00000000      -6.00000000      -6.00000000      -6.00000000      -6.00000000      -6.00000000      -6.00000000      -6.00000000      -6.00000000      -6.00000000      -6.00000000      -6.00000000      -6.00000000      -6.00000000      -6.00000000      -6.00000000      -6.00000000      -6.00000000      -6.00000000      -6.00000000      -6.00000000      -6.00000000      -6.00000000      -6.00000000      -6.00000000      -6.00000000      -6.00000000      -6.00000000      -6.00000000      -6.00000000      -6.00000000      -6.00000000      -6.00000000      -6.00000000      -6.00000000      -6.00000000      -6.00000000      -6.00000000      -6.00000000      -6.00000000      -6.00000000      -6.00000000      -6.00000000      -6.00000000      -6.00000000      -6.00000000      -6.00000000      -6.00000000      -6.00000000      -6.00000000      -6.00000000      -6.00000000      -6.00000000      -6.00000000      -6.00000000      -6.00000000      -6.00000000      -6.00000000      -6.00000000      -6.00000000      -6.00000000      -6.00000000      -6.00000000      -6.00000000      -6.00000000      -6.00000000      -6.00000000      -6.00000000      -6.00000000