# File generated by Flopy version 3.9.1 on 06/16/2025 at 22:01:55.
BEGIN options
END options

BEGIN griddata
  strt
    CONSTANT       1.00000000
END griddata

