# File generated by Flopy version 3.9.1 on 06/16/2025 at 22:01:55.
BEGIN options
  SAVE_FLOWS
  SAVE_SPECIFIC_DISCHARGE
  SAVE_SATURATION
END options

BEGIN griddata
  icelltype
    CONSTANT  0
  k  LAYERED
    INTERNAL  FACTOR  1.0
      2.44354283E-06  4.17400543E-06  7.08996231E-06  1.19219203E-05  1.45792892E-05  1.55392828E-06  1.55392828E-06  1.55392828E-06  1.55392828E-06  1.55392828E-06  1.55392828E-06  1.55392828E-06  1.55392828E-06  1.55392828E-06  1.55392828E-06  1.55392828E-06  2.17914885E-06  2.12919804E-06  2.06293180E-06  2.59568560E-06  2.55364284E-06  2.30259980E-06  2.18374748E-06  1.98949556E-06  1.67031976E-06  1.66591292E-06  1.78879111E-06  1.68260453E-06  1.43154739E-06  1.22191420E-06  1.05392860E-06  1.03804439E-06  1.19323397E-06  1.26011707E-06  1.22090614E-06  1.54192060E-06  1.91980644E-06  2.17930415E-06  2.07535118E-06  2.06048117E-06  2.30000319E-06  2.46550690E-06  2.17671004E-06  1.66103143E-06  1.35428206E-06  1.03206173E-06  8.46999967E-07  6.08575988E-07  4.90747880E-07  4.73544901E-07  4.54663962E-07  1.55392828E-06  1.55392828E-06  1.55392828E-06  1.55392828E-06  1.55392828E-06  5.14076930E-07  4.85110718E-07  4.87786508E-07  5.34215360E-07  5.75088734E-07  5.54681549E-07  5.57611656E-07  7.10852532E-07  1.11707402E-06  1.42421845E-06  1.70559576E-06  1.79503206E-06  1.86146315E-06  2.39665360E-06  2.39531710E-06  1.64121377E-06  1.10063513E-06  6.56437862E-07  4.38919869E-07  2.99482593E-07  3.07244846E-07  3.33472030E-07  3.34802024E-07  3.55352284E-07  2.96527645E-07  3.11368098E-07  3.82184766E-07  3.95986547E-07  3.59788231E-07  2.82509831E-07  2.90218850E-07  2.67515418E-07  3.25466743E-07  4.55198204E-07  6.53908955E-07  8.52886615E-07  1.01890146E-06  1.31437480E-06  1.67694145E-06  1.98464090E-06  2.19632420E-06  2.13469184E-06  2.11539918E-06  1.81400321E-06  1.29671992E-06  7.25305881E-07  5.83155042E-07  5.39768280E-07  5.17137664E-07  4.24273935E-07  3.34492881E-07  2.55586514E-07  1.55392828E-06  1.55392828E-06  1.55392828E-06  1.55392828E-06  1.55392828E-06  1.55392828E-06  1.55392828E-06  1.55392828E-06  3.10111602E-07  3.56385812E-07  3.81536211E-07  5.04737386E-07  6.28425141E-07  8.32335900E-07  1.04684068E-06  9.98567430E-07  9.41471001E-07  9.43900204E-07  8.79401966E-07  8.47356944E-07  7.12561928E-07  5.38072186E-07  4.32903079E-07  3.84589697E-07  3.64544377E-07  3.49874597E-07  3.40630692E-07  2.97695664E-07  3.17638126E-07  3.47955364E-07  3.15780341E-07  3.84108148E-07
      2.94515371E-06  4.30235468E-06  6.69738802E-06  1.08358854E-05  1.37468724E-05  1.15943185E-05  1.55392828E-06  1.55392828E-06  1.55392828E-06  1.55392828E-06  1.55392828E-06  1.55392828E-06  1.55392828E-06  1.55392828E-06  1.55392828E-06  1.55392828E-06  2.52780933E-06  2.96016128E-06  2.98569603E-06  3.18733510E-06  3.08988160E-06  3.01641012E-06  2.67020937E-06  2.43097406E-06  2.15555315E-06  2.07560606E-06  2.05913034E-06  2.00513773E-06  1.46574996E-06  1.25126462E-06  1.14304748E-06  1.18056346E-06  1.20789764E-06  1.14847649E-06  9.54462848E-07  1.01686692E-06  1.29504394E-06  1.55477881E-06  1.59309604E-06  1.48938886E-06  1.61940693E-06  1.82489350E-06  1.53396581E-06  1.29399018E-06  9.90601848E-07  8.10494669E-07  6.92114099E-07  6.50355105E-07  5.41874442E-07  5.10022005E-07  4.54862175E-07  4.61479203E-07  4.43816504E-07  4.46332194E-07  4.69316547E-07  4.52113710E-07  3.90573518E-07  3.54661665E-07  3.53713546E-07  3.93883738E-07  4.93062259E-07  5.25342955E-07  5.52644224E-07  6.91916966E-07  9.62962076E-07  1.26973032E-06  1.25605982E-06  1.35818334E-06  1.56632302E-06  1.71029274E-06  1.44866078E-06  1.17957916E-06  7.41471126E-07  4.53529594E-07  3.18156765E-07  2.53065338E-07  2.56373568E-07  2.72575107E-07  2.90669448E-07  2.91385589E-07  2.77778781E-07  3.31467618E-07  3.96772293E-07  4.33078213E-07  4.38089074E-07  4.44071219E-07  4.26705242E-07  3.74610124E-07  3.85479609E-07  4.65761843E-07  5.48236528E-07  6.69685562E-07  8.18589342E-07  1.02278682E-06  1.39719305E-06  1.62007848E-06  1.81264056E-06  1.93144228E-06  1.73692729E-06  1.66532573E-06  1.29236901E-06  9.13839926E-07  8.21598974E-07  6.82480561E-07  6.54315670E-07  5.42249950E-07  4.12360720E-07  2.90160159E-07  2.30288506E-07  1.55392828E-06  1.55392828E-06  1.55392828E-06  1.55392828E-06  1.55392828E-06  1.55392828E-06  1.55392828E-06  3.33421468E-07  3.63473475E-07  4.59405953E-07  6.71212717E-07  8.34724176E-07  1.10086592E-06  1.38283906E-06  1.24761800E-06  1.13254100E-06  1.26131954E-06  1.18892331E-06  1.12755049E-06  1.09930284E-06  7.79207198E-07  6.23031724E-07  6.13670522E-07  6.24459233E-07  5.45610476E-07  4.86611555E-07  3.49415075E-07  3.60731633E-07  3.88211333E-07  4.15202067E-07  4.69677275E-07
      2.78740026E-06  4.04584353E-06  5.52463371E-06  8.64357753E-06  1.00644320E-05  8.96869460E-06  7.45625812E-06  5.98549514E-06  1.55392828E-06  1.55392828E-06  1.55392828E-06  1.55392828E-06  1.55392828E-06  1.55392828E-06  1.55392828E-06  1.55392828E-06  3.32090872E-06  4.53281973E-06  4.10093890E-06  3.76219919E-06  3.52694678E-06  3.85315616E-06  3.66855602E-06  3.34008200E-06  3.05380127E-06  3.23330119E-06  3.00750412E-06  2.53153485E-06  1.89516754E-06  1.39870224E-06  1.20323296E-06  1.18790376E-06  1.05065635E-06  9.06906564E-07  6.83308770E-07  6.33461468E-07  8.20336595E-07  1.04254548E-06  1.09023949E-06  1.09023006E-06  1.09350128E-06  1.30516355E-06  1.17830655E-06  1.07329481E-06  9.65854497E-07  8.55009546E-07  8.56422275E-07  8.21319475E-07  6.44646775E-07  5.78491949E-07  5.58899046E-07  5.55588656E-07  4.88962883E-07  4.51534447E-07  4.20373055E-07  3.94439326E-07  3.34657869E-07  3.05303189E-07  2.99998817E-07  3.30531606E-07  3.71708580E-07  3.59545083E-07  4.28877314E-07  5.21478057E-07  6.70105464E-07  8.73406577E-07  1.01751721E-06  1.21200708E-06  1.29801958E-06  1.29082184E-06  1.02483750E-06  7.78275250E-07  5.19188177E-07  3.18376038E-07  2.09838930E-07  1.82462927E-07  1.87474868E-07  2.05778591E-07  2.45709174E-07  2.77060252E-07  2.95174715E-07  3.80544208E-07  4.54590463E-07  5.40161977E-07  5.60575813E-07  6.18188551E-07  5.32572926E-07  4.43419111E-07  4.56597093E-07  4.75886139E-07  5.50950176E-07  6.87652971E-07  8.36308459E-07  1.00431566E-06  1.28862860E-06  1.58070441E-06  1.55244891E-06  1.63822472E-06  1.46229070E-06  1.34255481E-06  1.15273917E-06  1.00863167E-06  1.09049859E-06  9.34501600E-07  9.01986652E-07  7.30172019E-07  5.96000802E-07  4.13361306E-07  3.28824711E-07  1.55392828E-06  1.55392828E-06  1.55392828E-06  1.55392828E-06  1.55392828E-06  1.55392828E-06  1.55392828E-06  3.67092866E-07  3.89248328E-07  5.20761148E-07  7.00731846E-07  8.35223773E-07  1.17438833E-06  1.41583951E-06  1.34729783E-06  1.39568408E-06  1.52596715E-06  1.55272926E-06  1.63427887E-06  1.45646266E-06  1.13819260E-06  9.03490161E-07  9.68988047E-07  1.04945696E-06  9.08681500E-07  6.47222009E-07  4.72796273E-07  4.28327866E-07  4.15935745E-07  5.52715392E-07  6.37929816E-07
      2.10774806E-06  2.98218515E-06  4.44650868E-06  5.87579325E-06  6.72274155E-06  6.35625656E-06  5.49364222E-06  4.18920081E-06  3.52956272E-06  3.16606793E-06  1.55392828E-06  1.55392828E-06  1.55392828E-06  1.55392828E-06  1.55392828E-06  2.63522884E-06  3.41697501E-06  4.17121282E-06  4.52974018E-06  4.38062943E-06  4.76603554E-06  5.18736670E-06  5.43855276E-06  5.02057674E-06  4.83819440E-06  4.42570763E-06  3.78222489E-06  2.79522851E-06  1.98146358E-06  1.41138526E-06  1.09482767E-06  8.45547390E-07  6.70134227E-07  5.60299895E-07  4.49010258E-07  4.51596520E-07  5.57455337E-07  6.89485830E-07  7.74150806E-07  7.52722030E-07  7.91690809E-07  1.01479156E-06  9.87746489E-07  1.02831518E-06  1.00717682E-06  1.04634125E-06  1.18422440E-06  8.85839086E-07  8.01628630E-07  7.35968342E-07  6.62895900E-07  6.93777793E-07  6.40637097E-07  6.18743513E-07  5.12968654E-07  4.33100439E-07  3.85285261E-07  3.23544128E-07  3.13393201E-07  3.09922314E-07  3.09272536E-07  2.93581280E-07  3.18573427E-07  3.85847130E-07  4.63785909E-07  6.69589781E-07  9.16246790E-07  1.04755770E-06  1.13156671E-06  9.69334337E-07  8.18131639E-07  5.90213688E-07  3.82991431E-07  2.46680884E-07  1.63783483E-07  1.48837415E-07  1.46900376E-07  1.65812253E-07  1.99113899E-07  2.63737235E-07  3.32913885E-07  4.41953091E-07  5.84800205E-07  7.68403993E-07  8.32432647E-07  8.17453440E-07  6.48971252E-07  5.57536907E-07  5.48968046E-07  5.78379513E-07  6.33600393E-07  7.60453815E-07  9.86887585E-07  1.23768848E-06  1.31262095E-06  1.49148434E-06  1.44989701E-06  1.35192113E-06  1.09386053E-06  1.04904348E-06  1.04354501E-06  1.05160746E-06  1.05994309E-06  1.10227518E-06  1.18404807E-06  9.65662025E-07  8.21986873E-07  5.61693184E-07  4.97105532E-07  4.28529205E-07  1.55392828E-06  1.55392828E-06  1.55392828E-06  1.55392828E-06  1.55392828E-06  4.73534499E-07  4.58952456E-07  4.80193137E-07  6.71429007E-07  7.90834747E-07  8.62861043E-07  9.99821509E-07  1.12693613E-06  1.34016193E-06  1.73702210E-06  1.89377909E-06  1.88549075E-06  1.76691753E-06  1.74351089E-06  1.59567389E-06  1.45376521E-06  1.54892655E-06  1.41772250E-06  1.18982052E-06  8.83907546E-07  6.54006101E-07  5.89683737E-07  5.64453501E-07  6.28324358E-07  7.78402182E-07
      1.56320004E-06  2.50447079E-06  3.42746466E-06  4.08529559E-06  4.38266761E-06  4.23455231E-06  3.66093877E-06  2.87566672E-06  2.46201716E-06  2.40752502E-06  2.65502695E-06  1.55392828E-06  1.55392828E-06  3.00762258E-06  2.49244727E-06  2.24431460E-06  2.65786866E-06  2.72745865E-06  3.11767008E-06  3.18252160E-06  3.57891531E-06  4.41384782E-06  5.70597058E-06  1.55392828E-06  1.55392828E-06  1.55392828E-06  1.55392828E-06  1.55392828E-06  1.55392828E-06  1.33155072E-06  8.60160242E-07  5.54882376E-07  4.08138561E-07  3.00958050E-07  2.82174227E-07  2.73245064E-07  3.84958469E-07  4.88318619E-07  5.68163330E-07  6.15033741E-07  6.92275705E-07  8.67699157E-07  9.71661393E-07  1.03952891E-06  9.80529421E-07  1.10892961E-06  1.32764148E-06  1.38706923E-06  1.24278313E-06  9.44879844E-07  8.29348494E-07  8.13542101E-07  8.79990750E-07  8.52331937E-07  7.75613159E-07  5.76375271E-07  4.79304560E-07  3.91661985E-07  3.42096286E-07  3.12014208E-07  2.98345270E-07  2.42346090E-07  2.35680801E-07  2.82250511E-07  3.84209699E-07  5.00705482E-07  7.12009523E-07  8.04465799E-07  8.68245479E-07  8.29645614E-07  7.00196438E-07  5.04979084E-07  3.46889180E-07  2.23676210E-07  1.38563109E-07  1.13680784E-07  1.22792954E-07  1.45774862E-07  1.85225076E-07  2.60598910E-07  3.70960464E-07  5.31784565E-07  7.59229067E-07  1.12549981E-06  1.34377842E-06  1.23722850E-06  9.91023512E-07  7.96429617E-07  7.67017468E-07  8.01747774E-07  7.70139366E-07  9.43339899E-07  1.11676707E-06  1.34452148E-06  1.37548034E-06  1.31969625E-06  1.43508453E-06  1.33040840E-06  1.02368222E-06  9.16607576E-07  9.10583537E-07  9.34457887E-07  9.37239406E-07  1.00037164E-06  1.09874020E-06  1.01000444E-06  9.64671244E-07  6.39061682E-07  5.44493105E-07  4.88316573E-07  5.17019828E-07  1.55392828E-06  1.55392828E-06  4.98159750E-07  4.38854585E-07  4.59394869E-07  5.18148227E-07  5.91350783E-07  6.98934684E-07  7.70325244E-07  8.02678585E-07  9.12134965E-07  1.13278929E-06  1.25374652E-06  1.49288041E-06  1.64166761E-06  1.90542164E-06  1.99658484E-06  2.04582511E-06  2.15068007E-06  2.08657116E-06  2.03215882E-06  1.91245999E-06  1.31714478E-06  1.00961643E-06  7.51885182E-07  7.57416728E-07  7.00222870E-07  8.05915249E-07  9.05439038E-07
      1.57214629E-06  2.21687765E-06  2.76262926E-06  3.22971027E-06  3.15705324E-06  2.99143812E-06  2.50357266E-06  2.11369752E-06  1.89941511E-06  1.89293735E-06  2.22698100E-06  2.61723017E-06  2.93043308E-06  2.64801952E-06  2.62427648E-06  2.44062176E-06  2.35404968E-06  2.10071789E-06  2.01141074E-06  2.03300692E-06  2.37694417E-06  1.55392828E-06  1.55392828E-06  1.55392828E-06  1.55392828E-06  1.55392828E-06  1.55392828E-06  1.55392828E-06  1.55392828E-06  1.55392828E-06  1.55392828E-06  4.13791639E-07  2.73657122E-07  1.93705858E-07  1.55392828E-06  1.55392828E-06  1.55392828E-06  3.76610927E-07  1.55392828E-06  1.55392828E-06  1.55392828E-06  1.55392828E-06  1.55392828E-06  9.76507408E-07  1.01804778E-06  1.21356368E-06  1.82390920E-06  2.01857529E-06  1.91461868E-06  1.45408706E-06  1.05782863E-06  9.94903417E-07  1.05439915E-06  1.13538135E-06  9.58934947E-07  7.79514153E-07  6.09938411E-07  4.74282103E-07  4.08331061E-07  3.61560012E-07  3.22882045E-07  2.58324036E-07  2.54449617E-07  2.43213066E-07  3.11009472E-07  4.52581759E-07  6.03911133E-07  8.02898739E-07  7.97045857E-07  7.60923854E-07  6.42604959E-07  4.82503879E-07  3.47587303E-07  1.90842044E-07  1.18390709E-07  1.09339737E-07  1.18191338E-07  1.37980834E-07  1.79160367E-07  2.52607322E-07  4.35769607E-07  6.63253218E-07  1.12407838E-06  1.61925857E-06  2.02894785E-06  1.82009387E-06  1.51462370E-06  1.18926084E-06  1.04976959E-06  9.94214702E-07  9.49934019E-07  1.02182696E-06  1.34526044E-06  1.57802538E-06  1.47373851E-06  1.32384832E-06  1.37729364E-06  1.32982279E-06  1.03704281E-06  9.95087817E-07  8.91141383E-07  9.34501145E-07  9.95213441E-07  1.04954802E-06  1.09899906E-06  1.01665785E-06  9.37430912E-07  6.88474472E-07  6.13941438E-07  5.42153487E-07  4.67385973E-07  4.38214414E-07  4.45722662E-07  3.98211682E-07  3.67629241E-07  4.10923718E-07  4.84090890E-07  5.46330000E-07  6.53751556E-07  7.58411829E-07  7.62947877E-07  7.35040430E-07  9.10029939E-07  9.86651457E-07  1.15543219E-06  1.44472688E-06  1.68033421E-06  1.86570117E-06  2.11201041E-06  2.04458433E-06  1.55392828E-06  1.55392828E-06  1.55392828E-06  1.54149802E-06  1.19662639E-06  9.52643859E-07  9.87741487E-07  9.21604794E-07  1.00245973E-06  9.69474740E-07
      1.95368079E-06  2.31862873E-06  2.51019196E-06  2.61274727E-06  2.42867918E-06  2.36331607E-06  2.37050813E-06  2.18484774E-06  2.06015739E-06  2.03407080E-06  2.15833393E-06  2.77465210E-06  2.99213843E-06  2.82692963E-06  2.66761481E-06  2.53294252E-06  2.26412703E-06  1.79259644E-06  1.66119037E-06  1.53626866E-06  1.55392828E-06  1.55392828E-06  1.55392828E-06  1.55392828E-06  1.55392828E-06  1.55392828E-06  1.55392828E-06  1.55392828E-06  1.55392828E-06  1.55392828E-06  1.55392828E-06  1.55392828E-06  1.55392828E-06  1.55392828E-06  1.55392828E-06  1.55392828E-06  1.55392828E-06  1.55392828E-06  1.55392828E-06  1.55392828E-06  1.55392828E-06  1.55392828E-06  1.55392828E-06  1.55392828E-06  1.55392828E-06  1.93692881E-06  2.44590001E-06  2.95645850E-06  2.74333593E-06  1.98898442E-06  1.43611885E-06  1.22007680E-06  1.37057521E-06  1.43279146E-06  1.16735418E-06  8.41129008E-07  7.23759626E-07  5.66311257E-07  4.72999858E-07  4.02031702E-07  3.86042188E-07  3.37898769E-07  3.26325704E-07  3.44226322E-07  4.43408680E-07  5.08268386E-07  6.27994837E-07  8.80449875E-07  9.93757453E-07  8.96112567E-07  6.63271976E-07  4.59518532E-07  3.11022518E-07  1.85624856E-07  1.11446091E-07  1.11698824E-07  1.11802848E-07  1.21088718E-07  1.67303781E-07  2.78657978E-07  6.03599801E-07  1.05249262E-06  1.61263688E-06  2.29667125E-06  3.24559187E-06  2.87372791E-06  2.12711393E-06  1.78470066E-06  1.61230730E-06  1.38835208E-06  1.11705253E-06  1.18651462E-06  1.28349325E-06  1.46425225E-06  1.50024653E-06  1.31630281E-06  1.26541920E-06  1.19539288E-06  1.04761034E-06  9.57468046E-07  9.92066134E-07  1.02428055E-06  1.09213511E-06  1.20332061E-06  1.33256844E-06  1.21396897E-06  9.83893869E-07  7.78113190E-07  6.60282012E-07  4.79290463E-07  4.03598364E-07  4.16655638E-07  4.03823378E-07  3.69156282E-07  3.47037400E-07  3.67846127E-07  4.35386056E-07  5.09326526E-07  5.94340406E-07  6.74437047E-07  6.21286802E-07  6.30381862E-07  7.13722216E-07  7.93955564E-07  9.89792056E-07  1.12731641E-06  1.55392828E-06  1.55392828E-06  1.55392828E-06  1.55392828E-06  1.55392828E-06  1.55392828E-06  1.55392828E-06  1.55392828E-06  1.55392828E-06  1.15552143E-06  1.25541146E-06  1.17734760E-06  1.15251487E-06  1.05658967E-06
      1.99841975E-06  2.35381799E-06  2.66454731E-06  2.43627642E-06  2.26021803E-06  2.26462316E-06  2.26425391E-06  2.21657160E-06  2.21880327E-06  2.13741851E-06  2.47005619E-06  2.67275755E-06  2.55372834E-06  2.58853993E-06  2.66591269E-06  2.56365502E-06  2.05661422E-06  1.54718703E-06  1.37211782E-06  1.29094440E-06  1.55392828E-06  1.55392828E-06  1.55392828E-06  1.55392828E-06  1.55392828E-06  1.55392828E-06  1.55392828E-06  1.55392828E-06  1.55392828E-06  1.55392828E-06  1.55392828E-06  1.55392828E-06  1.55392828E-06  1.55392828E-06  1.55392828E-06  1.55392828E-06  1.55392828E-06  1.55392828E-06  1.55392828E-06  1.55392828E-06  1.55392828E-06  1.55392828E-06  1.55392828E-06  1.55392828E-06  1.55392828E-06  2.91297579E-06  3.45370131E-06  4.37187191E-06  3.63229401E-06  2.72879242E-06  2.02735328E-06  1.81968301E-06  1.67111159E-06  1.48492234E-06  1.21273831E-06  9.16795159E-07  8.13290285E-07  6.20755713E-07  5.51130540E-07  4.85464568E-07  4.90993216E-07  4.86614965E-07  4.76939306E-07  5.37972767E-07  6.02776822E-07  6.28148200E-07  8.07980712E-07  1.13629710E-06  1.32523655E-06  9.79606057E-07  6.63933406E-07  4.39789375E-07  2.91390876E-07  1.86270483E-07  1.25120778E-07  1.10107749E-07  1.09062000E-07  1.33780503E-07  2.06517939E-07  3.41906571E-07  8.50940978E-07  1.79684764E-06  2.83502618E-06  3.81783639E-06  4.85332794E-06  4.47445700E-06  2.97907263E-06  2.35094149E-06  1.95544430E-06  1.62871549E-06  1.32975219E-06  1.24969472E-06  1.27674173E-06  1.26525231E-06  1.32179593E-06  1.30514354E-06  1.20691777E-06  1.15396176E-06  1.00159457E-06  9.69182338E-07  1.01956380E-06  1.04615617E-06  1.10580618E-06  1.26526720E-06  1.45202125E-06  1.30201795E-06  1.12548560E-06  8.66065875E-07  6.74217233E-07  5.15771092E-07  3.64058536E-07  3.20389148E-07  3.09228994E-07  3.39052377E-07  3.24854483E-07  3.70568017E-07  4.42619807E-07  4.58719427E-07  5.23912661E-07  5.69845781E-07  5.62265029E-07  6.48523553E-07  7.21334402E-07  7.73605905E-07  1.55392828E-06  1.55392828E-06  1.55392828E-06  1.55392828E-06  1.55392828E-06  1.55392828E-06  1.55392828E-06  1.55392828E-06  1.55392828E-06  1.55392828E-06  1.55392828E-06  1.60254638E-06  1.52457733E-06  1.41288808E-06  1.32016964E-06  1.12441307E-06
      1.84329724E-06  2.00888167E-06  2.08454162E-06  2.00524346E-06  1.94408312E-06  2.10863209E-06  2.40499389E-06  2.04222852E-06  1.95660209E-06  2.18184118E-06  2.39656038E-06  2.52231257E-06  2.34844651E-06  2.46285299E-06  2.16322837E-06  2.13383078E-06  1.63720290E-06  1.32384491E-06  1.14152886E-06  1.05433537E-06  1.55392828E-06  1.55392828E-06  1.55392828E-06  1.55392828E-06  1.55392828E-06  1.55392828E-06  1.55392828E-06  1.55392828E-06  1.55392828E-06  1.55392828E-06  1.55392828E-06  1.55392828E-06  1.55392828E-06  1.55392828E-06  1.55392828E-06  1.55392828E-06  1.55392828E-06  1.55392828E-06  1.55392828E-06  1.55392828E-06  1.55392828E-06  1.55392828E-06  1.55392828E-06  1.55392828E-06  1.55392828E-06  1.55392828E-06  4.68608550E-06  5.07734285E-06  4.06117761E-06  3.15742182E-06  2.98798614E-06  2.41610087E-06  2.01052171E-06  1.45748788E-06  1.24640439E-06  1.05793856E-06  1.02438321E-06  7.88815498E-07  6.59214265E-07  5.81185475E-07  5.87331158E-07  6.13197074E-07  7.13911390E-07  7.89457829E-07  8.83281416E-07  8.94849848E-07  1.10462850E-06  1.34422658E-06  1.54917984E-06  1.08476456E-06  7.11110715E-07  4.53496654E-07  2.77074179E-07  1.78068944E-07  1.34845052E-07  1.16987344E-07  1.04612802E-07  1.35451117E-07  2.51922955E-07  4.81466827E-07  1.17831007E-06  2.44486773E-06  4.00264935E-06  6.19949469E-06  6.30832665E-06  4.41968496E-06  3.08120480E-06  2.72416264E-06  2.19449748E-06  1.75402135E-06  1.50129233E-06  1.56591557E-06  1.61510673E-06  1.49435414E-06  1.36064614E-06  1.36271615E-06  1.17800596E-06  1.00151601E-06  9.45015586E-07  8.56548809E-07  8.80500636E-07  1.00855073E-06  1.22916845E-06  1.47471428E-06  1.51229688E-06  1.32961486E-06  1.27340479E-06  1.06073685E-06  7.65515892E-07  5.01946090E-07  3.67325640E-07  2.93753743E-07  2.59822031E-07  2.97976044E-07  3.36896051E-07  3.99229606E-07  4.60122692E-07  4.58133940E-07  5.43483168E-07  5.64049174E-07  5.62832156E-07  6.19421257E-07  6.49329422E-07  7.06495143E-07  1.55392828E-06  1.55392828E-06  1.55392828E-06  1.55392828E-06  1.55392828E-06  1.55392828E-06  1.55392828E-06  1.55392828E-06  1.55392828E-06  1.55392828E-06  1.55392828E-06  2.03355376E-06  2.06510185E-06  1.86353861E-06  1.50266112E-06  1.23489190E-06
      1.43549369E-06  1.77573190E-06  1.92613311E-06  1.95823759E-06  2.17880893E-06  2.47173239E-06  2.41474004E-06  2.42365900E-06  2.14955594E-06  2.31589161E-06  2.15276714E-06  1.88626507E-06  1.74372235E-06  1.83816030E-06  1.72080922E-06  1.60881757E-06  1.27319402E-06  1.02100762E-06  8.98862879E-07  8.31428849E-07  1.55392828E-06  1.55392828E-06  1.55392828E-06  1.55392828E-06  1.55392828E-06  1.55392828E-06  1.55392828E-06  1.55392828E-06  1.55392828E-06  1.55392828E-06  1.55392828E-06  1.55392828E-06  1.55392828E-06  1.55392828E-06  1.55392828E-06  1.55392828E-06  1.55392828E-06  1.55392828E-06  1.55392828E-06  1.55392828E-06  1.55392828E-06  1.55392828E-06  1.55392828E-06  1.55392828E-06  1.55392828E-06  1.55392828E-06  1.55392828E-06  5.00894885E-06  4.25062035E-06  3.61308912E-06  3.76448656E-06  3.09962024E-06  2.15571140E-06  1.51197412E-06  1.38218832E-06  1.38322594E-06  1.32535206E-06  1.06989853E-06  7.96518407E-07  6.76115576E-07  6.34066168E-07  6.76073341E-07  8.24153801E-07  9.77291961E-07  1.17929051E-06  1.34920322E-06  1.76832680E-06  1.99436568E-06  2.04826483E-06  1.35142966E-06  8.35998151E-07  5.34066828E-07  3.23719320E-07  2.17832195E-07  1.59519701E-07  1.27449297E-07  1.30322448E-07  1.68832088E-07  2.92730022E-07  5.61565059E-07  1.25037832E-06  2.87290163E-06  4.74118997E-06  6.66193955E-06  6.15609861E-06  4.30692990E-06  3.17518538E-06  3.08873541E-06  2.38997154E-06  1.84884141E-06  1.84350347E-06  1.87525700E-06  1.91152549E-06  1.70807448E-06  1.33078970E-06  1.15490695E-06  1.03717593E-06  9.74746399E-07  8.48287129E-07  7.71017596E-07  7.39433290E-07  1.01457931E-06  1.18894843E-06  1.35133814E-06  1.46353557E-06  1.50558094E-06  1.42728538E-06  1.14704835E-06  7.93235188E-07  4.61448764E-07  3.25841029E-07  2.73385751E-07  2.65592291E-07  2.88705422E-07  3.44354561E-07  4.05746107E-07  4.70547974E-07  4.89820764E-07  5.51518895E-07  5.63265530E-07  5.92583433E-07  5.96720952E-07  6.59770535E-07  7.52837707E-07  1.55392828E-06  1.55392828E-06  1.55392828E-06  1.55392828E-06  1.55392828E-06  1.55392828E-06  1.55392828E-06  1.55392828E-06  1.55392828E-06  1.55392828E-06  1.55392828E-06  2.57139413E-06  2.82123165E-06  2.44325315E-06  1.92430753E-06  1.57963370E-06
      1.19240565E-06  1.47049957E-06  1.78891617E-06  2.13060684E-06  2.35726770E-06  2.75459388E-06  2.55619443E-06  2.74022545E-06  2.40148279E-06  2.22811445E-06  1.96387737E-06  1.76993615E-06  1.59252022E-06  1.58117234E-06  1.39978567E-06  1.21531571E-06  9.87627914E-07  7.60493265E-07  6.59170610E-07  6.82329869E-07  1.55392828E-06  1.55392828E-06  1.55392828E-06  1.55392828E-06  1.55392828E-06  1.55392828E-06  1.55392828E-06  1.55392828E-06  1.55392828E-06  1.55392828E-06  1.55392828E-06  1.55392828E-06  1.55392828E-06  1.55392828E-06  1.55392828E-06  1.55392828E-06  1.55392828E-06  1.55392828E-06  1.55392828E-06  1.55392828E-06  1.55392828E-06  1.55392828E-06  1.55392828E-06  1.55392828E-06  1.55392828E-06  1.55392828E-06  1.55392828E-06  1.55392828E-06  1.55392828E-06  4.84861221E-06  3.98962948E-06  2.91972015E-06  2.11933138E-06  1.61237961E-06  1.62085826E-06  1.62300887E-06  1.41928047E-06  1.09271309E-06  9.31616171E-07  8.48264051E-07  7.93734216E-07  7.90610102E-07  9.96146923E-07  1.23959376E-06  1.53789779E-06  2.12776627E-06  2.72549391E-06  2.88121237E-06  2.56261364E-06  1.61773528E-06  1.01925582E-06  6.24348843E-07  4.07181318E-07  2.97740996E-07  2.12025782E-07  1.76032870E-07  1.78258205E-07  2.39137563E-07  3.67434268E-07  5.96210214E-07  1.36424592E-06  2.71535168E-06  4.69679071E-06  6.43442127E-06  5.79672451E-06  4.52389486E-06  4.17660203E-06  3.71841816E-06  2.97818360E-06  2.21007508E-06  2.19826711E-06  2.27180590E-06  2.28060298E-06  1.94003769E-06  1.35085907E-06  1.10391545E-06  9.98836981E-07  8.47911679E-07  7.48149773E-07  7.35085223E-07  7.42237319E-07  9.97432949E-07  1.28451074E-06  1.46351931E-06  1.75631976E-06  1.86610532E-06  1.72943510E-06  1.34492302E-06  8.25317443E-07  4.62194379E-07  3.03466209E-07  3.03239915E-07  3.14349052E-07  3.07675634E-07  3.27731840E-07  3.74032140E-07  4.08505628E-07  4.97100530E-07  5.55321719E-07  5.65495043E-07  6.51933590E-07  7.10887377E-07  7.66555615E-07  8.76373861E-07  1.55392828E-06  1.55392828E-06  1.55392828E-06  1.55392828E-06  1.55392828E-06  1.55392828E-06  1.55392828E-06  1.55392828E-06  1.55392828E-06  1.55392828E-06  1.55392828E-06  3.40626593E-06  3.71920942E-06  3.58823308E-06  2.92623395E-06  2.31384524E-06
      8.71791883E-07  1.12378473E-06  1.65401082E-06  2.16269336E-06  2.65339850E-06  3.19831247E-06  3.19677974E-06  3.63136610E-06  2.94166034E-06  2.22482322E-06  1.91275967E-06  1.70738713E-06  1.46989055E-06  1.37806182E-06  1.32508603E-06  1.12191083E-06  8.66380219E-07  6.68619634E-07  5.55803581E-07  1.55392828E-06  1.55392828E-06  1.55392828E-06  1.55392828E-06  1.55392828E-06  1.55392828E-06  1.55392828E-06  1.55392828E-06  1.55392828E-06  1.55392828E-06  1.55392828E-06  1.55392828E-06  1.55392828E-06  1.55392828E-06  1.55392828E-06  1.55392828E-06  1.55392828E-06  1.55392828E-06  1.55392828E-06  1.55392828E-06  1.55392828E-06  1.55392828E-06  1.55392828E-06  1.55392828E-06  1.55392828E-06  1.55392828E-06  1.55392828E-06  1.55392828E-06  1.55392828E-06  1.55392828E-06  1.55392828E-06  3.67796065E-06  3.13655073E-06  2.62153162E-06  2.14890042E-06  1.86201396E-06  1.87386559E-06  1.45382171E-06  1.21479457E-06  1.05314984E-06  1.03892683E-06  1.02001025E-06  9.58138799E-07  1.30443550E-06  1.79525432E-06  2.15368254E-06  3.03827596E-06  3.74259139E-06  4.09263794E-06  3.25797669E-06  2.12439591E-06  1.31632157E-06  8.53289407E-07  6.04994057E-07  4.05710011E-07  3.20081654E-07  2.61481745E-07  2.55882014E-07  3.19514271E-07  4.67790500E-07  7.56365807E-07  1.42624503E-06  2.68385952E-06  4.11966676E-06  5.75381000E-06  5.60033322E-06  4.87543957E-06  4.88387195E-06  4.82146334E-06  3.80230813E-06  2.98246823E-06  3.02840590E-06  3.02128387E-06  2.80619156E-06  2.35850416E-06  1.61815706E-06  1.22783035E-06  1.09625557E-06  8.91725335E-07  7.43452802E-07  6.82364089E-07  7.09387621E-07  8.93439562E-07  1.25468227E-06  1.63938307E-06  2.36137043E-06  2.68641247E-06  2.49287837E-06  1.65815948E-06  8.77906132E-07  5.55416364E-07  3.60503492E-07  3.84914472E-07  4.04218184E-07  3.58448091E-07  3.44346546E-07  3.87894715E-07  4.50007377E-07  5.35517643E-07  5.87985255E-07  6.25262317E-07  6.71289342E-07  7.64966160E-07  9.27395206E-07  9.87043222E-07  1.13555006E-06  1.55392828E-06  1.55392828E-06  1.55392828E-06  1.55392828E-06  1.55392828E-06  1.55392828E-06  1.55392828E-06  1.55392828E-06  1.55392828E-06  1.55392828E-06  4.33133664E-06  4.56951784E-06  4.67555992E-06  3.93028040E-06  3.38285213E-06
      7.73710212E-07  1.03388447E-06  1.51082008E-06  2.12069995E-06  2.72664170E-06  3.41716145E-06  4.20788365E-06  4.62523758E-06  4.00611179E-06  3.10949258E-06  2.30332307E-06  1.86978036E-06  1.45713818E-06  1.26533325E-06  1.17347554E-06  1.01690705E-06  8.88822171E-07  6.03736282E-07  4.97356666E-07  1.55392828E-06  1.55392828E-06  1.55392828E-06  1.55392828E-06  1.55392828E-06  1.55392828E-06  1.55392828E-06  1.55392828E-06  1.55392828E-06  1.55392828E-06  1.55392828E-06  1.55392828E-06  1.55392828E-06  1.55392828E-06  1.55392828E-06  1.55392828E-06  1.55392828E-06  1.55392828E-06  1.55392828E-06  1.55392828E-06  1.55392828E-06  1.55392828E-06  1.55392828E-06  1.55392828E-06  1.55392828E-06  1.55392828E-06  1.55392828E-06  1.55392828E-06  1.55392828E-06  1.55392828E-06  1.55392828E-06  1.55392828E-06  3.28353531E-06  2.66979828E-06  2.33017863E-06  2.07479115E-06  2.02477145E-06  1.72525358E-06  1.24541396E-06  1.11671932E-06  1.20418713E-06  1.16353078E-06  1.35212940E-06  1.76544427E-06  2.16333206E-06  2.59624062E-06  3.57130762E-06  4.57093802E-06  4.94115329E-06  4.18760146E-06  3.21894231E-06  2.05860738E-06  1.21787161E-06  8.23042001E-07  5.53041104E-07  4.06531285E-07  3.76639889E-07  4.03835998E-07  4.30946187E-07  5.78532820E-07  9.22497975E-07  1.77078175E-06  2.94197594E-06  4.27216946E-06  5.73149100E-06  5.77954870E-06  5.31203932E-06  5.90727450E-06  5.95646316E-06  5.15351212E-06  4.70020132E-06  4.37365588E-06  3.64325047E-06  3.04971672E-06  2.52211998E-06  1.76441790E-06  1.45065644E-06  1.31127524E-06  1.00833097E-06  7.26050530E-07  6.72678198E-07  7.23009578E-07  8.80467496E-07  1.23183622E-06  1.59382728E-06  2.20288075E-06  2.61858054E-06  2.67389441E-06  1.80061727E-06  1.02012280E-06  5.89694082E-07  4.79108280E-07  4.79529660E-07  4.66368220E-07  4.17084664E-07  4.26001350E-07  4.25144520E-07  5.18232866E-07  5.83718872E-07  6.39696339E-07  6.82002849E-07  6.81191864E-07  8.82331392E-07  1.10251790E-06  1.23949485E-06  1.43888542E-06  2.26762268E-06  1.55392828E-06  1.55392828E-06  1.55392828E-06  1.55392828E-06  1.55392828E-06  1.55392828E-06  1.55392828E-06  1.55392828E-06  1.55392828E-06  5.63002959E-06  5.82987013E-06  5.96138716E-06  5.62212881E-06  5.10037944E-06