# File generated by Flopy version 3.9.2 on 06/26/2025 at 10:55:01.
BEGIN options
END options

BEGIN griddata
  strt
    CONSTANT       1.00000000
END griddata

