# File generated by Flopy version 3.9.2 on 06/16/2025 at 16:32:45.
BEGIN options
  SAVE_FLOWS
  SAVE_SPECIFIC_DISCHARGE
  SAVE_SATURATION
END options

BEGIN griddata
  icelltype
    CONSTANT  0
  k  LAYERED
    INTERNAL  FACTOR  1.0
      6.52665506E-07  4.71534264E-07  3.17806268E-07  1.76948205E-07  1.28300684E-07  1.15841942E-07  1.12069969E-07  1.23542861E-07  1.48888347E-07  2.24692869E-07  2.78458970E-07  3.71454519E-07  5.54335884E-07  9.87855969E-07  1.62162223E-06  2.31222566E-06  3.14433964E-06  3.31194337E-06  3.34338256E-06  2.75651291E-06  2.05083188E-06  1.39945155E-06  1.14032650E-06  9.67312076E-07  9.92295668E-07  8.76587819E-07  7.20326000E-07  5.81462984E-07  4.52739101E-07  3.42559645E-07  2.52177529E-07  2.35934721E-07  2.63294851E-07  3.10565298E-07  4.03232519E-07  5.12557449E-07  6.96902475E-07  1.01799594E-06  1.11159602E-06  1.19267645E-06  1.17627906E-06  1.00516331E-06  9.71099666E-07  9.13201347E-07  7.95202197E-07  7.55881103E-07  6.74603086E-07  4.62874198E-07  4.26598717E-07  4.07615687E-07  3.42118909E-07  3.18906046E-07  2.86503393E-07  2.70446037E-07  2.93817294E-07  3.21357419E-07  3.82504453E-07  3.86144251E-07  3.42219522E-07  2.80908637E-07  3.19106675E-07  4.47123881E-07  5.17667843E-07  5.33640673E-07  6.45146997E-07  8.51745085E-07  1.02817251E-06  1.24539497E-06  1.65138306E-06  2.01070611E-06  2.78629773E-06  3.38769996E-06  5.16634873E-06  6.96427333E-06  8.30879981E-06  9.28634381E-06  1.14040549E-05  1.47712699E-05  1.48953259E-05  9.43758187E-06  5.58179227E-06  2.83829468E-06  1.51181462E-06  7.62293212E-07  5.15415365E-07  3.51818699E-07  2.51036482E-07  1.97224850E-07  1.89997536E-07  1.84469400E-07  1.98862111E-07  2.68545278E-07  1.43132217E-06  1.43132217E-06  1.43132217E-06  1.43132217E-06  1.43132217E-06  1.43132217E-06  1.43132217E-06  1.43132217E-06  1.43132217E-06  1.43132217E-06  1.43132217E-06  1.43132217E-06  1.43132217E-06  1.43132217E-06  1.43132217E-06  1.43132217E-06  1.43132217E-06  1.43132217E-06  1.43132217E-06  1.43132217E-06  1.43132217E-06  1.43132217E-06  1.43132217E-06  1.43132217E-06  1.43132217E-06  1.43132217E-06  1.43132217E-06  1.43132217E-06  1.43132217E-06  1.43132217E-06  1.43132217E-06  1.43132217E-06  1.43132217E-06  1.43132217E-06  1.83474026E-06  1.61388255E-06  1.51857773E-06  1.29239243E-06  9.20514708E-07  6.01060606E-07  3.61754530E-07  1.83288265E-07  1.22354393E-07  1.06374415E-07  1.19938704E-07  1.71559847E-07  2.50070087E-07  3.52583982E-07
      7.29790315E-07  4.65908244E-07  2.84210103E-07  1.84550899E-07  1.42362524E-07  1.10514677E-07  1.17499489E-07  1.22040916E-07  1.37276174E-07  1.88974241E-07  3.03459927E-07  4.39077553E-07  7.26219184E-07  1.21358516E-06  2.00934142E-06  2.59719604E-06  3.28258056E-06  3.84099667E-06  3.64055268E-06  3.45880767E-06  2.50763105E-06  1.88135641E-06  1.60842171E-06  1.33655544E-06  1.25745260E-06  1.12690236E-06  9.25069912E-07  7.57209762E-07  5.63690378E-07  4.88723401E-07  3.44346944E-07  2.59491912E-07  2.89832826E-07  3.24428299E-07  3.99780305E-07  5.10094026E-07  6.92142862E-07  9.44024976E-07  1.06258199E-06  1.03267507E-06  1.05353877E-06  9.44160661E-07  9.19013928E-07  8.10726647E-07  8.10183678E-07  6.84320298E-07  5.86229987E-07  3.94414627E-07  3.74147220E-07  3.81049261E-07  2.92197683E-07  2.86508339E-07  3.12615867E-07  3.08547158E-07  3.70839189E-07  4.28741487E-07  4.82953055E-07  4.88650130E-07  4.45928436E-07  4.10355597E-07  4.03314345E-07  4.71736655E-07  5.09746314E-07  5.01347472E-07  5.53345103E-07  6.31284649E-07  7.56413726E-07  9.46995499E-07  1.28758495E-06  1.36708286E-06  1.73525075E-06  2.29803049E-06  3.32929812E-06  4.83303938E-06  5.95119036E-06  7.96458971E-06  9.44478415E-06  1.07862543E-05  1.10390602E-05  8.16141528E-06  5.33324283E-06  2.77224626E-06  1.45202091E-06  8.50685296E-07  5.81839629E-07  3.82376783E-07  2.66870586E-07  2.27484747E-07  2.29608091E-07  2.32035049E-07  2.43297677E-07  3.22270239E-07  1.43132217E-06  1.43132217E-06  1.43132217E-06  1.43132217E-06  1.43132217E-06  1.43132217E-06  1.43132217E-06  1.43132217E-06  1.43132217E-06  1.43132217E-06  1.43132217E-06  1.43132217E-06  1.43132217E-06  1.43132217E-06  1.43132217E-06  1.43132217E-06  1.43132217E-06  1.43132217E-06  1.43132217E-06  1.43132217E-06  1.43132217E-06  1.43132217E-06  1.43132217E-06  1.43132217E-06  1.43132217E-06  1.43132217E-06  1.43132217E-06  1.43132217E-06  1.43132217E-06  1.43132217E-06  1.43132217E-06  1.43132217E-06  1.43132217E-06  1.43132217E-06  1.43132217E-06  1.43132217E-06  1.43132217E-06  1.43132217E-06  1.43132217E-06  5.27378234E-07  3.27769641E-07  2.03406302E-07  1.26939923E-07  1.06476762E-07  1.26999922E-07  1.79557446E-07  2.39922684E-07  3.70911636E-07
      7.58709575E-07  4.71642437E-07  3.09222202E-07  2.11099703E-07  1.61324479E-07  1.14650447E-07  1.18886597E-07  1.16826939E-07  1.35439763E-07  1.95552545E-07  2.90113803E-07  5.02279363E-07  9.07866081E-07  1.40718794E-06  1.98097064E-06  2.80965151E-06  3.47823607E-06  4.05969377E-06  4.36461323E-06  4.23711936E-06  3.05828689E-06  2.60965339E-06  2.02607362E-06  1.70310318E-06  1.62393599E-06  1.37123538E-06  1.12953398E-06  8.52594326E-07  6.70606596E-07  6.12647455E-07  4.52358563E-07  3.20301979E-07  3.24094088E-07  3.83478664E-07  4.77260301E-07  5.66514359E-07  7.51990967E-07  9.35605840E-07  1.02518300E-06  9.92069545E-07  1.08735549E-06  1.08805023E-06  9.53335075E-07  7.86084001E-07  7.42594636E-07  5.69566623E-07  4.47487309E-07  3.60869535E-07  3.03559915E-07  3.05816656E-07  2.75556488E-07  2.88438798E-07  3.22308779E-07  4.04481682E-07  4.98642123E-07  5.54717758E-07  5.75416720E-07  6.26906285E-07  5.47026616E-07  5.31182650E-07  5.19607113E-07  5.34824210E-07  4.97673796E-07  4.94144331E-07  4.60458523E-07  4.91271862E-07  6.00100861E-07  6.07342542E-07  7.72324995E-07  9.28867337E-07  1.18502919E-06  1.65911604E-06  2.45907540E-06  3.42420094E-06  4.35544325E-06  6.01126612E-06  7.21245215E-06  7.74546788E-06  7.53611948E-06  6.33625632E-06  4.29144166E-06  2.71765657E-06  1.54093652E-06  9.34497621E-07  6.81317829E-07  4.82806513E-07  3.35621053E-07  2.84984168E-07  3.11435883E-07  3.04453579E-07  3.20750559E-07  4.06553312E-07  1.43132217E-06  1.43132217E-06  1.43132217E-06  1.43132217E-06  1.43132217E-06  1.43132217E-06  1.43132217E-06  1.43132217E-06  1.43132217E-06  1.43132217E-06  1.43132217E-06  1.43132217E-06  1.43132217E-06  1.43132217E-06  1.43132217E-06  1.43132217E-06  1.43132217E-06  1.43132217E-06  1.43132217E-06  1.43132217E-06  1.43132217E-06  1.43132217E-06  1.43132217E-06  1.43132217E-06  1.43132217E-06  1.43132217E-06  1.43132217E-06  1.43132217E-06  1.43132217E-06  1.43132217E-06  1.43132217E-06  1.43132217E-06  1.43132217E-06  1.43132217E-06  1.43132217E-06  1.43132217E-06  1.43132217E-06  1.43132217E-06  1.43132217E-06  1.43132217E-06  1.43132217E-06  2.16800629E-07  1.55858643E-07  1.37041781E-07  1.56666033E-07  2.02574469E-07  3.06652936E-07  4.82780536E-07
      9.54137022E-07  5.80006656E-07  3.94512512E-07  2.60141405E-07  1.70587597E-07  1.26722654E-07  1.20711135E-07  1.26535099E-07  1.49680844E-07  2.14630319E-07  3.93225406E-07  6.30482248E-07  1.04690207E-06  1.56282420E-06  2.05433412E-06  2.70948181E-06  3.40834777E-06  4.20103515E-06  4.58622162E-06  4.50608150E-06  4.05840728E-06  3.51082485E-06  2.78593529E-06  2.20026300E-06  1.93711571E-06  1.65992594E-06  1.25033841E-06  1.05428637E-06  7.88117006E-07  7.86344685E-07  5.31509670E-07  4.15844937E-07  4.10244269E-07  4.47859435E-07  4.38741608E-07  4.97283054E-07  7.17282887E-07  9.24901997E-07  1.04935918E-06  1.03820128E-06  1.09510779E-06  1.08894687E-06  8.21680089E-07  7.37405003E-07  6.44236309E-07  5.26169572E-07  4.24093486E-07  3.51336553E-07  3.14050084E-07  2.93363001E-07  2.89044010E-07  3.00061771E-07  3.45213437E-07  4.84485838E-07  6.25058306E-07  6.99106636E-07  7.21607250E-07  7.80879702E-07  6.75172146E-07  6.58781119E-07  6.23793028E-07  5.98661472E-07  5.27892496E-07  4.96946427E-07  4.41147705E-07  3.89027491E-07  4.38767387E-07  4.36081791E-07  4.38168968E-07  4.94713845E-07  7.08210735E-07  1.43132217E-06  1.43132217E-06  1.43132217E-06  1.43132217E-06  4.22643507E-06  5.05722574E-06  4.77897174E-06  4.40108670E-06  4.58981549E-06  3.93406117E-06  2.60826846E-06  1.59445403E-06  1.11073587E-06  7.87103659E-07  5.69898475E-07  4.17096658E-07  3.87219927E-07  3.95793052E-07  3.89186198E-07  4.75169344E-07  5.25773260E-07  1.43132217E-06  1.43132217E-06  1.43132217E-06  1.43132217E-06  1.43132217E-06  1.43132217E-06  1.43132217E-06  1.43132217E-06  1.43132217E-06  1.43132217E-06  1.43132217E-06  1.43132217E-06  1.43132217E-06  1.43132217E-06  1.43132217E-06  1.43132217E-06  1.43132217E-06  1.43132217E-06  1.43132217E-06  1.43132217E-06  1.43132217E-06  1.43132217E-06  1.43132217E-06  1.43132217E-06  1.43132217E-06  1.43132217E-06  1.43132217E-06  1.43132217E-06  1.43132217E-06  1.43132217E-06  1.43132217E-06  1.43132217E-06  1.43132217E-06  1.43132217E-06  1.43132217E-06  1.43132217E-06  1.43132217E-06  1.43132217E-06  1.43132217E-06  1.43132217E-06  1.43132217E-06  2.44550250E-07  1.91974337E-07  1.96689328E-07  2.55678287E-07  3.28007786E-07  4.12159352E-07  6.45612886E-07
      1.18161256E-06  8.10222673E-07  5.50710809E-07  3.35664055E-07  2.20272682E-07  1.65771780E-07  1.56263880E-07  1.54241974E-07  1.97766440E-07  2.89172561E-07  4.23960813E-07  6.62767945E-07  1.28198826E-06  1.85532429E-06  2.33350738E-06  2.74775311E-06  2.90227763E-06  3.24142570E-06  3.52287339E-06  4.14027545E-06  4.12805639E-06  3.76650223E-06  3.04045034E-06  2.36854635E-06  2.16482385E-06  1.63395634E-06  1.45076638E-06  1.31337049E-06  9.63607135E-07  7.53567633E-07  5.25420262E-07  4.49729868E-07  4.53102643E-07  4.27918167E-07  4.35673883E-07  5.40084955E-07  8.49609762E-07  1.18270702E-06  1.10356495E-06  1.10814733E-06  1.11309339E-06  9.70005431E-07  8.81846518E-07  7.58849353E-07  6.52878327E-07  5.18261913E-07  4.38919017E-07  3.53402413E-07  3.27574583E-07  2.72483419E-07  2.64338723E-07  3.22979929E-07  4.02151329E-07  5.67604275E-07  7.19321179E-07  8.08048583E-07  8.92706851E-07  9.79090601E-07  9.44569706E-07  8.27279507E-07  7.40863300E-07  5.76596619E-07  4.51365139E-07  3.51841663E-07  3.03935138E-07  2.84460469E-07  3.12149410E-07  2.61683425E-07  2.31573253E-07  2.52182417E-07  3.58307148E-07  1.43132217E-06  1.43132217E-06  1.43132217E-06  1.54109023E-06  2.39369820E-06  3.43604961E-06  3.17944273E-06  2.87038188E-06  3.12106454E-06  2.91547599E-06  2.62548588E-06  1.82718668E-06  1.36787105E-06  1.00289515E-06  8.04744900E-07  6.12923373E-07  4.99072939E-07  4.86771853E-07  4.66679012E-07  5.60424382E-07  1.43132217E-06  1.43132217E-06  1.43132217E-06  1.43132217E-06  1.43132217E-06  1.43132217E-06  1.43132217E-06  1.43132217E-06  1.43132217E-06  1.43132217E-06  1.43132217E-06  1.43132217E-06  1.43132217E-06  1.43132217E-06  1.43132217E-06  1.43132217E-06  1.43132217E-06  1.43132217E-06  1.43132217E-06  1.43132217E-06  1.43132217E-06  1.43132217E-06  1.43132217E-06  1.43132217E-06  1.43132217E-06  1.43132217E-06  1.43132217E-06  1.43132217E-06  1.43132217E-06  1.43132217E-06  1.43132217E-06  1.43132217E-06  1.43132217E-06  1.43132217E-06  1.43132217E-06  1.43132217E-06  1.43132217E-06  1.43132217E-06  1.43132217E-06  1.43132217E-06  1.43132217E-06  1.43132217E-06  1.43132217E-06  2.26309083E-07  2.80532873E-07  3.95898411E-07  5.01254704E-07  5.39970927E-07  8.38853339E-07
      1.76348942E-06  1.13080716E-06  8.13121233E-07  4.50258028E-07  2.89351874E-07  2.26959358E-07  2.18207106E-07  2.56900876E-07  2.85390144E-07  3.67781013E-07  4.82868074E-07  7.57541443E-07  1.29252066E-06  1.81204223E-06  2.14586112E-06  2.44291368E-06  2.49727418E-06  2.58399473E-06  2.59749277E-06  3.10609812E-06  3.78709501E-06  3.74063666E-06  3.24578923E-06  2.59079297E-06  2.18338323E-06  1.66889936E-06  1.54465886E-06  1.65767187E-06  1.27243266E-06  1.07369146E-06  7.43535281E-07  5.63502056E-07  5.38732650E-07  4.74434813E-07  4.65991889E-07  5.90267746E-07  8.34937339E-07  1.14178602E-06  1.14277202E-06  9.64371338E-07  1.05228094E-06  1.06175059E-06  8.92871697E-07  7.10263805E-07  6.73776185E-07  5.44134309E-07  4.97749397E-07  4.16478031E-07  3.44693944E-07  3.02380613E-07  3.20324745E-07  3.76551640E-07  5.55051145E-07  7.20993285E-07  8.36783443E-07  9.95964342E-07  1.14038346E-06  1.23222696E-06  1.18648063E-06  9.06534581E-07  7.43292446E-07  6.01787121E-07  4.28087475E-07  3.06548117E-07  2.57735479E-07  2.17723425E-07  2.09303650E-07  1.61411648E-07  1.38220230E-07  1.43132217E-06  1.80533164E-07  2.58258723E-07  1.43132217E-06  1.43132217E-06  8.28691952E-07  1.42428212E-06  2.20281936E-06  2.34904019E-06  2.13957378E-06  2.33912647E-06  2.23801726E-06  1.94236259E-06  1.82568544E-06  1.40448719E-06  1.22487609E-06  1.01189551E-06  7.86101793E-07  5.37414110E-07  4.72611504E-07  4.83242900E-07  5.46669412E-07  1.43132217E-06  1.43132217E-06  1.43132217E-06  1.43132217E-06  1.43132217E-06  1.43132217E-06  1.43132217E-06  1.43132217E-06  1.43132217E-06  1.43132217E-06  1.43132217E-06  1.43132217E-06  1.43132217E-06  1.43132217E-06  1.43132217E-06  1.43132217E-06  1.43132217E-06  1.43132217E-06  1.43132217E-06  1.43132217E-06  1.43132217E-06  1.43132217E-06  1.43132217E-06  1.43132217E-06  1.43132217E-06  1.43132217E-06  1.43132217E-06  1.43132217E-06  1.43132217E-06  1.43132217E-06  1.43132217E-06  1.43132217E-06  1.43132217E-06  1.43132217E-06  1.43132217E-06  1.43132217E-06  1.43132217E-06  1.43132217E-06  1.43132217E-06  1.43132217E-06  1.43132217E-06  1.43132217E-06  1.43132217E-06  1.43132217E-06  1.43132217E-06  1.43132217E-06  1.43132217E-06  1.43132217E-06  1.43132217E-06
      2.34933441E-06  1.41643000E-06  9.24010351E-07  5.22847472E-07  4.10259872E-07  3.82787107E-07  4.12236346E-07  5.03760418E-07  4.86104284E-07  5.20777633E-07  7.24134395E-07  1.01338992E-06  1.52051894E-06  1.86736179E-06  1.98794987E-06  1.96217388E-06  2.07622634E-06  2.08598385E-06  2.14347824E-06  2.47075423E-06  2.91931906E-06  3.02842932E-06  2.90200660E-06  2.56317821E-06  2.39879523E-06  2.19263006E-06  1.92338757E-06  1.86147190E-06  1.59260662E-06  1.29069076E-06  1.00005934E-06  7.67486597E-07  7.07390882E-07  5.27645796E-07  4.52378373E-07  5.52605798E-07  7.09634435E-07  8.60560874E-07  9.39925485E-07  8.79854554E-07  9.70391284E-07  1.00492912E-06  8.33726517E-07  6.29031888E-07  6.24880443E-07  6.54637176E-07  6.44127965E-07  5.46072727E-07  3.89461917E-07  3.45071840E-07  3.43515239E-07  4.71537987E-07  6.86572776E-07  8.49165644E-07  9.40198277E-07  1.07260587E-06  1.26428938E-06  1.37903146E-06  1.29161378E-06  1.03750256E-06  8.11076916E-07  6.87659451E-07  4.33632408E-07  3.29266271E-07  2.82932803E-07  2.12081844E-07  1.55838109E-07  1.25195854E-07  9.86001112E-08  1.00370038E-07  1.23392439E-07  1.43132217E-06  1.43132217E-06  3.21206585E-07  4.77960839E-07  9.10585186E-07  1.50394590E-06  1.81742507E-06  1.78696928E-06  1.96424730E-06  1.89370428E-06  1.59131116E-06  1.48512243E-06  1.47708954E-06  1.34344668E-06  1.12693260E-06  8.19697732E-07  5.74368869E-07  4.86804538E-07  5.12989288E-07  1.43132217E-06  1.43132217E-06  1.43132217E-06  1.43132217E-06  1.43132217E-06  1.43132217E-06  1.43132217E-06  1.43132217E-06  1.43132217E-06  1.43132217E-06  1.43132217E-06  1.43132217E-06  1.43132217E-06  1.43132217E-06  1.43132217E-06  1.43132217E-06  1.43132217E-06  1.43132217E-06  1.43132217E-06  1.43132217E-06  1.43132217E-06  1.43132217E-06  1.43132217E-06  1.43132217E-06  1.43132217E-06  1.43132217E-06  1.43132217E-06  1.43132217E-06  1.43132217E-06  1.43132217E-06  1.43132217E-06  1.43132217E-06  1.43132217E-06  1.43132217E-06  1.43132217E-06  1.43132217E-06  1.43132217E-06  1.43132217E-06  1.43132217E-06  1.43132217E-06  1.43132217E-06  1.43132217E-06  1.43132217E-06  1.43132217E-06  1.43132217E-06  1.43132217E-06  1.43132217E-06  1.43132217E-06  1.43132217E-06  1.43132217E-06
      3.17951117E-06  1.96375913E-06  1.21325354E-06  8.28621353E-07  7.04531374E-07  6.34828780E-07  6.26793280E-07  7.68980499E-07  7.51461926E-07  7.54396751E-07  1.05864615E-06  1.56790816E-06  2.05337165E-06  2.16485455E-06  2.07326889E-06  1.79084680E-06  1.54888517E-06  1.62930053E-06  1.77775257E-06  1.79210247E-06  2.15739988E-06  2.41372732E-06  2.69990778E-06  2.50202675E-06  2.42630722E-06  2.39304723E-06  2.13774979E-06  2.04257776E-06  1.73185072E-06  1.36959670E-06  9.27626957E-07  7.63932917E-07  1.43132217E-06  1.43132217E-06  1.43132217E-06  1.43132217E-06  5.83268047E-07  7.08612447E-07  6.71868975E-07  7.37893799E-07  8.74496038E-07  1.09161238E-06  9.47096737E-07  7.40400196E-07  6.52103097E-07  8.04272929E-07  7.27057738E-07  5.44466104E-07  4.05414625E-07  3.41573156E-07  3.91426880E-07  5.66773508E-07  7.81541473E-07  8.65913194E-07  1.03589468E-06  1.05903155E-06  1.23887799E-06  1.40752059E-06  1.28789407E-06  1.05597496E-06  7.78338972E-07  5.93180175E-07  4.64946282E-07  3.48657977E-07  2.65905726E-07  2.15075517E-07  1.53067887E-07  1.11178181E-07  8.63372520E-08  7.80997524E-08  8.87024427E-08  1.02343058E-07  1.46531249E-07  2.29501978E-07  3.16169292E-07  5.68033215E-07  1.02917613E-06  1.44761771E-06  1.72482407E-06  1.90754599E-06  1.84254839E-06  1.46046716E-06  1.77116567E-06  1.95580242E-06  1.70247779E-06  1.29998978E-06  9.59147997E-07  6.08423818E-07  5.34998776E-07  4.92108029E-07  1.43132217E-06  1.43132217E-06  1.43132217E-06  1.43132217E-06  1.43132217E-06  1.43132217E-06  1.43132217E-06  1.43132217E-06  1.43132217E-06  1.43132217E-06  1.43132217E-06  1.43132217E-06  1.43132217E-06  1.43132217E-06  1.43132217E-06  1.43132217E-06  1.43132217E-06  1.43132217E-06  1.43132217E-06  1.43132217E-06  1.43132217E-06  1.43132217E-06  1.43132217E-06  1.43132217E-06  1.43132217E-06  1.43132217E-06  1.43132217E-06  1.43132217E-06  1.43132217E-06  1.43132217E-06  1.43132217E-06  1.43132217E-06  1.43132217E-06  1.43132217E-06  1.43132217E-06  1.43132217E-06  1.43132217E-06  1.43132217E-06  1.43132217E-06  1.43132217E-06  1.43132217E-06  1.43132217E-06  1.43132217E-06  1.43132217E-06  1.43132217E-06  1.43132217E-06  1.43132217E-06  1.43132217E-06  1.43132217E-06  1.43132217E-06
      3.49405195E-06  2.52502764E-06  1.61901562E-06  1.21154676E-06  8.93511697E-07  7.87279362E-07  7.71771397E-07  9.50976471E-07  1.01572459E-06  1.02569527E-06  1.43824764E-06  2.34234699E-06  2.66218149E-06  2.45964793E-06  2.31791500E-06  1.83629345E-06  1.43353805E-06  1.49208665E-06  1.70562225E-06  1.53626468E-06  1.53120925E-06  1.84439284E-06  2.14428974E-06  2.17827755E-06  2.33915694E-06  2.39067936E-06  2.35053608E-06  2.06725122E-06  1.65420226E-06  1.16781837E-06  7.39217171E-07  1.43132217E-06  1.43132217E-06  1.43132217E-06  1.43132217E-06  1.43132217E-06  1.43132217E-06  5.18779984E-07  5.61127251E-07  5.88939827E-07  6.67401480E-07  9.13638871E-07  9.23398488E-07  7.62375919E-07  7.17527712E-07  7.61170895E-07  7.44819772E-07  5.63890239E-07  4.04601337E-07  3.70507365E-07  4.46430931E-07  6.07774382E-07  7.93849267E-07  8.74741772E-07  1.08534016E-06  1.16605634E-06  1.30884166E-06  1.66644486E-06  1.56031638E-06  9.84705707E-07  6.65362563E-07  5.45018622E-07  4.61356024E-07  3.90226717E-07  2.76738433E-07  2.01452394E-07  1.40792906E-07  1.06696135E-07  8.67377352E-08  8.13704588E-08  7.95136401E-08  9.33300512E-08  1.23051166E-07  1.82450009E-07  2.65930453E-07  4.32455494E-07  8.07232482E-07  1.18299670E-06  1.61077446E-06  1.91145614E-06  2.13337285E-06  1.98624957E-06  2.52429368E-06  2.89041736E-06  2.77271010E-06  2.10044254E-06  1.44028218E-06  7.87219960E-07  6.40771361E-07  1.43132217E-06  1.43132217E-06  1.43132217E-06  1.43132217E-06  1.43132217E-06  1.43132217E-06  1.43132217E-06  1.43132217E-06  1.43132217E-06  1.43132217E-06  1.43132217E-06  1.43132217E-06  1.43132217E-06  1.43132217E-06  1.43132217E-06  2.97866677E-07  3.25089502E-07  3.64897971E-07  4.27161268E-07  5.87242425E-07  1.43132217E-06  1.43132217E-06  1.43132217E-06  1.43132217E-06  1.43132217E-06  1.43132217E-06  1.43132217E-06  1.43132217E-06  1.43132217E-06  1.43132217E-06  1.43132217E-06  1.43132217E-06  1.43132217E-06  1.43132217E-06  1.43132217E-06  1.43132217E-06  1.43132217E-06  1.43132217E-06  1.43132217E-06  1.43132217E-06  1.43132217E-06  1.43132217E-06  1.43132217E-06  1.43132217E-06  1.43132217E-06  1.43132217E-06  1.43132217E-06  1.43132217E-06  1.43132217E-06  1.43132217E-06  1.43132217E-06
      3.96310770E-06  2.78635412E-06  1.78328321E-06  1.41381793E-06  1.12774751E-06  1.04682056E-06  1.04614639E-06  1.18777916E-06  1.32159266E-06  1.37318716E-06  1.85182898E-06  2.36372080E-06  2.73871728E-06  2.49728760E-06  2.56294106E-06  2.26531779E-06  1.90731294E-06  1.77352842E-06  1.74296133E-06  1.52588984E-06  1.47755486E-06  1.61204241E-06  1.78546998E-06  1.96211249E-06  2.04563003E-06  2.09735663E-06  2.26334328E-06  2.16239550E-06  1.63404980E-06  1.18127866E-06  7.85453778E-07  1.43132217E-06  1.43132217E-06  1.43132217E-06  1.43132217E-06  1.43132217E-06  1.43132217E-06  3.97306252E-07  4.04220515E-07  4.59736100E-07  5.52641609E-07  6.27611257E-07  6.87993293E-07  6.52652034E-07  5.64552806E-07  6.11450503E-07  6.54294979E-07  5.89971648E-07  4.40583875E-07  4.06499368E-07  4.93532013E-07  7.24940548E-07  8.46441253E-07  9.30138924E-07  1.07545532E-06  1.20450375E-06  1.17800710E-06  1.25128940E-06  1.19094705E-06  8.95943288E-07  5.70450482E-07  4.75974502E-07  4.51937524E-07  3.98421150E-07  2.91826723E-07  2.13400000E-07  1.59691879E-07  1.11412234E-07  9.97451082E-08  8.98142147E-08  8.71168737E-08  1.02394964E-07  1.25719467E-07  1.91226846E-07  2.68895292E-07  4.29572765E-07  7.24703114E-07  1.00892282E-06  1.60746367E-06  1.94577660E-06  2.52580503E-06  2.87908779E-06  3.70493672E-06  4.24713653E-06  3.87828686E-06  2.99567751E-06  2.15189834E-06  1.36015615E-06  9.87414865E-07  7.10810298E-07  1.43132217E-06  1.43132217E-06  1.43132217E-06  1.43132217E-06  1.43132217E-06  1.43132217E-06  1.43132217E-06  1.43132217E-06  1.43132217E-06  1.43132217E-06  1.43132217E-06  1.43132217E-06  1.43132217E-06  4.30338815E-07  5.13995644E-07  5.34684318E-07  5.95638710E-07  5.56685734E-07  6.44957822E-07  1.06904031E-06  1.68342922E-06  2.31819240E-06  2.80894392E-06  3.18970365E-06  2.73406954E-06  2.60675961E-06  2.65786184E-06  1.43132217E-06  1.43132217E-06  1.43132217E-06  1.43132217E-06  1.43132217E-06  1.43132217E-06  1.43132217E-06  1.43132217E-06  1.43132217E-06  1.43132217E-06  1.43132217E-06  1.43132217E-06  1.43132217E-06  1.43132217E-06  1.43132217E-06  1.43132217E-06  1.43132217E-06  1.43132217E-06  1.43132217E-06  1.43132217E-06  1.43132217E-06  1.43132217E-06  1.43132217E-06
      3.43219517E-06  2.84728912E-06  2.05809511E-06  1.52163386E-06  1.19725905E-06  1.17201489E-06  1.31261436E-06  1.62594347E-06  1.69532495E-06  1.58366095E-06  1.83128873E-06  1.95416737E-06  2.02708247E-06  2.18831724E-06  2.42539681E-06  2.63372226E-06  2.52839186E-06  2.26732891E-06  2.38177381E-06  1.69153429E-06  1.57914292E-06  1.60239176E-06  1.78673486E-06  2.07742664E-06  2.09084760E-06  2.10612711E-06  2.18156038E-06  2.05912943E-06  1.85981503E-06  1.50084588E-06  1.00345130E-06  1.43132217E-06  1.43132217E-06  1.43132217E-06  1.43132217E-06  1.43132217E-06  1.43132217E-06  1.43132217E-06  3.76938146E-07  3.73897194E-07  4.76711762E-07  4.88655701E-07  5.01054274E-07  4.78389154E-07  4.63893116E-07  5.82020959E-07  6.47538400E-07  6.27552993E-07  5.56077282E-07  5.64902678E-07  6.02461569E-07  7.37602591E-07  8.47453464E-07  1.05699087E-06  1.43132217E-06  1.43132217E-06  1.43132217E-06  1.43132217E-06  1.43132217E-06  1.43132217E-06  1.43132217E-06  1.43132217E-06  6.38989661E-07  5.26079873E-07  3.79274582E-07  2.56879247E-07  2.12118664E-07  1.69042238E-07  1.32554447E-07  1.13894075E-07  1.10496998E-07  1.28599851E-07  1.48181883E-07  2.03157086E-07  3.09595379E-07  5.05600440E-07  7.27208146E-07  1.24607027E-06  1.74336492E-06  2.28637487E-06  3.10582550E-06  3.93105211E-06  5.06127026E-06  5.38238965E-06  4.71886369E-06  4.44535135E-06  3.27754810E-06  2.16204921E-06  1.49252764E-06  9.16866327E-07  1.43132217E-06  1.43132217E-06  1.43132217E-06  1.43132217E-06  1.43132217E-06  1.43132217E-06  1.43132217E-06  1.43132217E-06  1.43132217E-06  1.43132217E-06  1.43132217E-06  1.43132217E-06  4.14417713E-07  5.44844966E-07  6.80794187E-07  7.13288614E-07  7.25155076E-07  6.84729571E-07  8.09782250E-07  1.16273236E-06  1.63107609E-06  2.25113945E-06  2.53069720E-06  2.51324036E-06  2.25541953E-06  2.17357638E-06  2.21054052E-06  2.43673026E-06  2.24930272E-06  2.26797374E-06  2.82623705E-06  4.15503882E-06  1.43132217E-06  1.43132217E-06  1.43132217E-06  1.43132217E-06  1.43132217E-06  1.43132217E-06  7.58924330E-07  6.85876671E-07  5.70748057E-07  5.47325271E-07  1.43132217E-06  1.43132217E-06  1.43132217E-06  1.43132217E-06  1.43132217E-06  1.43132217E-06  1.43132217E-06  1.43132217E-06
      2.02364004E-06  1.95365669E-06  2.13386033E-06  1.55343309E-06  1.35667392E-06  1.54866257E-06  1.68542351E-06  1.91399658E-06  1.94270274E-06  1.79638619E-06  1.64485084E-06  1.61200205E-06  1.71272029E-06  1.95020630E-06  2.49288519E-06  2.79856954E-06  2.69253724E-06  2.51642086E-06  2.84876046E-06  1.84767737E-06  1.67712699E-06  1.69831412E-06  1.88605657E-06  2.14761599E-06  2.31350259E-06  2.30162004E-06  2.41323301E-06  2.07072276E-06  2.33035780E-06  1.80692007E-06  1.43132217E-06  1.43132217E-06  1.43132217E-06  1.43132217E-06  1.43132217E-06  1.43132217E-06  1.43132217E-06  1.43132217E-06  1.43132217E-06  3.59766119E-07  3.86038550E-07  4.15196752E-07  3.85490694E-07  3.97684630E-07  4.21370032E-07  5.49279889E-07  6.59062437E-07  6.92453852E-07  6.53608254E-07  6.76481477E-07  6.38620349E-07  7.00814098E-07  8.98342819E-07  1.07465144E-06  1.43132217E-06  1.43132217E-06  1.43132217E-06  1.43132217E-06  1.43132217E-06  1.43132217E-06  1.43132217E-06  1.43132217E-06  9.90901185E-07  6.65035031E-07  4.91415847E-07  4.06825706E-07  3.37101397E-07  2.82489907E-07  2.13984691E-07  2.01870947E-07  1.95077135E-07  1.82236775E-07  2.46837857E-07  3.04491124E-07  3.91471048E-07  6.92635695E-07  9.39203630E-07  1.45871672E-06  2.15392038E-06  3.02720650E-06  3.98973907E-06  4.91758829E-06  6.15166709E-06  6.71084217E-06  6.20418359E-06  5.55719816E-06  4.59428702E-06  3.09755455E-06  1.82137774E-06  1.12577891E-06  7.88688340E-07  6.24693769E-07  1.43132217E-06  1.43132217E-06  3.92712934E-07  3.44249145E-07  3.74732139E-07  1.43132217E-06  1.43132217E-06  5.42366081E-07  5.53101131E-07  4.96925168E-07  5.12910674E-07  6.56108909E-07  7.78449078E-07  7.32092985E-07  7.03256319E-07  6.79349228E-07  9.56048893E-07  1.31538332E-06  1.83096677E-06  2.25505005E-06  2.26854786E-06  2.10257508E-06  1.79830840E-06  1.65908136E-06  1.80366771E-06  1.79225015E-06  1.64490802E-06  1.72278351E-06  1.93150322E-06  2.88792603E-06  4.73931368E-06  1.43132217E-06  1.43132217E-06  1.43132217E-06  1.43132217E-06  1.01566638E-06  9.06578805E-07  7.97914879E-07  7.66246330E-07  7.60824037E-07  8.13149768E-07  8.47196645E-07  9.04923013E-07  9.81704716E-07  1.11865347E-06  1.31079787E-06  1.67610813E-06  2.04804905E-06
      1.49959305E-06  1.71118654E-06  1.82009057E-06  1.51544759E-06  1.56988722E-06  1.82412373E-06  2.04399134E-06  2.22003655E-06  2.11310976E-06  2.09817608E-06  1.73126637E-06  1.61985020E-06  1.44634328E-06  1.62951824E-06  1.92362768E-06  2.13986868E-06  2.29464604E-06  2.41961789E-06  2.67351879E-06  2.21093842E-06  1.91570030E-06  2.03771765E-06  2.17432989E-06  2.41061116E-06  2.73826959E-06  2.80943323E-06  2.84309317E-06  2.48665424E-06  2.45379351E-06  1.97155055E-06  1.43132217E-06  1.43132217E-06  1.43132217E-06  1.43132217E-06  1.43132217E-06  1.43132217E-06  1.43132217E-06  1.43132217E-06  1.43132217E-06  1.43132217E-06  4.07982441E-07  4.01374109E-07  4.12346395E-07  4.17827465E-07  4.95017275E-07  5.94289986E-07  6.50012964E-07  6.54318455E-07  6.59838804E-07  6.28830833E-07  5.82456096E-07  6.52697395E-07  8.31976706E-07  1.02693127E-06  1.43132217E-06  1.43132217E-06  1.43132217E-06  1.43132217E-06  1.43132217E-06  1.43132217E-06  1.43132217E-06  1.43132217E-06  1.27256669E-06  9.28987674E-07  6.53751215E-07  5.24827101E-07  5.01637658E-07  4.75631794E-07  4.04725057E-07  3.54020443E-07  3.52080207E-07  3.87248775E-07  4.64545536E-07  5.34380831E-07  6.18808599E-07  1.08185520E-06  1.33326853E-06  1.99147553E-06  2.61059176E-06  3.73961484E-06  4.61267382E-06  5.57893100E-06  7.20498792E-06  8.38463711E-06  7.01170211E-06  5.84536474E-06  4.72914780E-06  3.48216213E-06  2.23427628E-06  1.66397126E-06  1.02157514E-06  7.04573210E-07  4.85485032E-07  3.73302640E-07  2.91459457E-07  2.58757382E-07  2.90854530E-07  3.31488252E-07  4.66656758E-07  5.99021860E-07  6.99172006E-07  7.14575890E-07  6.71019052E-07  7.41794793E-07  8.04599949E-07  8.04945728E-07  8.80245807E-07  9.21912601E-07  1.15756006E-06  1.41221426E-06  1.89971718E-06  2.20092056E-06  2.14525289E-06  1.76230549E-06  1.46627588E-06  1.27325950E-06  1.26300120E-06  1.20728487E-06  1.08231404E-06  1.25279757E-06  1.35118012E-06  1.97658937E-06  3.01027217E-06  4.34759340E-06  1.43132217E-06  1.43132217E-06  1.43132217E-06  1.06515984E-06  1.17406944E-06  1.25134341E-06  1.15556804E-06  1.08504173E-06  1.01434955E-06  1.09861617E-06  1.23791233E-06  1.64271080E-06  2.03385753E-06  2.20613583E-06  2.61195896E-06  2.93002950E-06