# File generated by Flopy version 3.9.2 on 06/16/2025 at 16:32:45.
BEGIN options
END options

BEGIN griddata
  strt
    CONSTANT       1.00000000
END griddata

