# File generated by Flopy version 3.9.1 on 09/05/2025 at 20:14:24.
BEGIN options
END options

BEGIN griddata
  strt
    CONSTANT       1.00000000
END griddata

