# File generated by Flopy version 3.9.2 on 06/16/2025 at 16:32:45.
BEGIN options
  DIGITS  5
  PRINT_INPUT
END options

BEGIN continuous  FILEOUT  head_obs_ref.csv
  h1  HEAD  4 14 26
  h2  HEAD  4 26 51
  h3  HEAD  4 46 81
  h4  HEAD  4 34 111
  h5  HEAD  4 64 131
  h6  HEAD  4 24 131
  h7  HEAD  4 34 101
  h6  HEAD  4 14 122
  h7  HEAD  4 54 21
END continuous  FILEOUT  head_obs_ref.csv

