# File generated by Flopy version 3.9.1 on 07/02/2025 at 17:31:52.
BEGIN options
END options

BEGIN griddata
  strt
    CONSTANT       1.00000000
END griddata

