# File generated by Flopy version 3.9.1 on 06/11/2025 at 10:23:19.
BEGIN options
  SAVE_FLOWS
  SAVE_SPECIFIC_DISCHARGE
  SAVE_SATURATION
END options

BEGIN griddata
  icelltype
    CONSTANT  0
  k  LAYERED
    INTERNAL  FACTOR  1.0
      1.56367230E-06  1.77835125E-06  2.01628131E-06  2.51779602E-06  3.13690566E-06  1.59499184E-06  1.59499184E-06  1.59499184E-06  1.59499184E-06  1.59499184E-06  1.59499184E-06  1.59499184E-06  1.59499184E-06  1.59499184E-06  1.59499184E-06  1.59499184E-06  6.11014138E-06  7.37131768E-06  6.80389530E-06  5.44990053E-06  3.68793258E-06  2.25029908E-06  1.45806348E-06  1.15901616E-06  9.94280640E-07  7.61058061E-07  5.80811445E-07  5.65953201E-07  5.33159152E-07  5.55483098E-07  7.29698456E-07  9.18538603E-07  1.20077743E-06  1.30891453E-06  1.50542485E-06  1.95222151E-06  2.64227106E-06  3.96592168E-06  5.11683720E-06  6.97551241E-06  7.93076015E-06  8.76804916E-06  8.46563580E-06  7.55213114E-06  5.71579722E-06  4.10781240E-06  3.32498280E-06  2.84707403E-06  2.30132946E-06  1.73061585E-06  1.26425107E-06  1.59499184E-06  1.59499184E-06  1.59499184E-06  1.59499184E-06  1.59499184E-06  4.87485352E-07  5.10473797E-07  4.80823758E-07  4.52068662E-07  4.25042458E-07  4.60616434E-07  4.64763701E-07  4.32803404E-07  3.52093082E-07  4.35221352E-07  4.41385453E-07  5.50036816E-07  6.93937693E-07  7.07462959E-07  7.30390013E-07  8.12208214E-07  1.04746186E-06  1.61279513E-06  2.26872999E-06  3.12075758E-06  3.99927740E-06  3.72109912E-06  3.06111770E-06  2.24819337E-06  1.49487073E-06  9.40007510E-07  5.93570292E-07  3.92366871E-07  3.29513824E-07  2.83756236E-07  2.78875490E-07  2.66578155E-07  3.21519593E-07  4.05949578E-07  5.00297688E-07  6.61428203E-07  8.10055724E-07  1.01043736E-06  1.49586333E-06  1.97235136E-06  2.30063847E-06  2.15728778E-06  1.90779406E-06  1.77068171E-06  1.58391776E-06  1.52082907E-06  1.20791196E-06  8.89637988E-07  7.84198619E-07  7.94247455E-07  7.66830624E-07  6.72669444E-07  1.59499184E-06  1.59499184E-06  1.59499184E-06  1.59499184E-06  1.59499184E-06  1.59499184E-06  1.59499184E-06  1.59499184E-06  5.90409002E-07  5.23230199E-07  4.81525376E-07  4.86301587E-07  5.92314962E-07  8.04145770E-07  1.06404923E-06  1.38416453E-06  1.60298407E-06  1.75549303E-06  2.16787680E-06  2.97605811E-06  3.55911607E-06  4.80220888E-06  5.69302347E-06  5.62467903E-06  5.21527863E-06  3.98226848E-06  3.23907352E-06  2.37029349E-06  1.48186393E-06  9.97207735E-07  8.63610069E-07  8.57855412E-07
      1.45099091E-06  1.70112094E-06  1.92928519E-06  2.57482588E-06  4.08127016E-06  5.09171241E-06  1.59499184E-06  1.59499184E-06  1.59499184E-06  1.59499184E-06  1.59499184E-06  1.59499184E-06  1.59499184E-06  1.59499184E-06  1.59499184E-06  1.59499184E-06  7.41563235E-06  7.95013329E-06  6.57361079E-06  5.09238635E-06  3.10683208E-06  1.81826988E-06  1.31327965E-06  1.00759416E-06  9.05407205E-07  8.15613248E-07  6.85854559E-07  6.53474842E-07  7.63839068E-07  8.05974651E-07  1.22256836E-06  1.52939651E-06  2.05902120E-06  2.56354292E-06  2.59132139E-06  3.04752507E-06  3.99701503E-06  4.91761512E-06  5.99920804E-06  7.02472880E-06  7.16985869E-06  6.46494482E-06  6.30261911E-06  5.96081600E-06  4.66401025E-06  3.68177439E-06  2.69481029E-06  2.31676495E-06  1.87178500E-06  1.33839467E-06  1.03888783E-06  6.77024786E-07  4.75929568E-07  4.10902715E-07  4.43583644E-07  5.66224060E-07  8.14663167E-07  8.66331447E-07  8.45316151E-07  7.15379258E-07  6.47933746E-07  5.99138218E-07  5.99441364E-07  4.96795622E-07  4.45723032E-07  4.67541611E-07  6.11372514E-07  6.59765362E-07  7.43406531E-07  8.92968103E-07  1.07283938E-06  1.13162935E-06  1.55157295E-06  2.27507212E-06  2.86584191E-06  3.20409822E-06  3.55417319E-06  3.21946959E-06  2.66750476E-06  2.02138131E-06  1.36874462E-06  9.52399375E-07  6.23602034E-07  3.77841218E-07  2.92271835E-07  2.65195865E-07  2.64475545E-07  2.67863925E-07  3.29576608E-07  4.08211463E-07  4.95904601E-07  6.21278105E-07  7.90494880E-07  1.02246452E-06  1.38407654E-06  1.81239386E-06  2.11493034E-06  2.35772427E-06  2.50421476E-06  2.21566847E-06  2.07701123E-06  1.70024430E-06  1.24477936E-06  9.46176669E-07  7.96537961E-07  7.88015427E-07  7.43586327E-07  7.00163355E-07  6.52523511E-07  1.59499184E-06  1.59499184E-06  1.59499184E-06  1.59499184E-06  1.59499184E-06  1.59499184E-06  1.59499184E-06  3.65610219E-07  2.93313462E-07  2.74137903E-07  2.81535478E-07  3.98975175E-07  5.95697486E-07  8.26167422E-07  1.04963397E-06  1.34985328E-06  1.75747971E-06  2.38566372E-06  3.31068236E-06  4.88493833E-06  6.10791631E-06  6.78367996E-06  7.17834382E-06  5.94052972E-06  4.18184936E-06  3.31211822E-06  2.71040335E-06  1.83844054E-06  1.19015624E-06  1.05382333E-06  9.33100580E-07
      1.49304037E-06  1.68110046E-06  1.97023132E-06  2.71764952E-06  4.19552816E-06  5.19630339E-06  5.81667973E-06  6.57036890E-06  1.59499184E-06  1.59499184E-06  1.59499184E-06  1.59499184E-06  1.59499184E-06  1.59499184E-06  1.59499184E-06  1.59499184E-06  7.34407740E-06  7.06997889E-06  5.61923662E-06  3.75764421E-06  2.49731829E-06  1.65797087E-06  1.07854407E-06  9.16604620E-07  7.74370392E-07  7.38700692E-07  6.87617728E-07  6.72500505E-07  8.99091674E-07  1.44692183E-06  2.38800635E-06  2.92361779E-06  3.45664694E-06  3.79582320E-06  4.18073114E-06  4.83449321E-06  6.23076539E-06  7.45055240E-06  7.39734787E-06  8.11088466E-06  6.97226642E-06  5.74884962E-06  4.79297250E-06  3.71204874E-06  3.34673200E-06  2.83457189E-06  2.46031414E-06  2.13213934E-06  1.80101347E-06  1.33805270E-06  1.06657285E-06  7.06779474E-07  5.94329890E-07  6.30248280E-07  7.60647936E-07  9.85230372E-07  1.22630684E-06  1.31022523E-06  1.18759863E-06  9.77927243E-07  8.79416802E-07  7.77323521E-07  6.77741696E-07  6.55575718E-07  5.89324941E-07  6.80951928E-07  7.44398903E-07  8.12797623E-07  9.90494186E-07  1.09180519E-06  1.36825656E-06  1.58928424E-06  1.96325868E-06  2.44720150E-06  2.95242307E-06  3.53393989E-06  3.63140020E-06  2.95858467E-06  2.23224561E-06  1.66998109E-06  1.19173285E-06  8.74172258E-07  6.13596683E-07  4.02053217E-07  2.95467260E-07  2.82469898E-07  2.95746304E-07  3.01471744E-07  3.42505416E-07  4.52195849E-07  5.60775447E-07  6.54865801E-07  7.38585243E-07  9.06958007E-07  1.23727091E-06  1.53667099E-06  1.77876393E-06  2.00106388E-06  2.26777411E-06  2.29566490E-06  2.17974934E-06  1.55002090E-06  1.27937744E-06  1.03414868E-06  8.18609124E-07  7.62169748E-07  7.72565954E-07  7.26066730E-07  6.13199063E-07  1.59499184E-06  1.59499184E-06  1.59499184E-06  1.59499184E-06  1.59499184E-06  1.59499184E-06  1.59499184E-06  2.32268420E-07  2.11083162E-07  1.99094686E-07  2.10884920E-07  2.84005154E-07  4.23504616E-07  6.25368330E-07  8.29593489E-07  1.08117001E-06  1.58866942E-06  2.48915899E-06  3.44284285E-06  5.21364927E-06  7.14596672E-06  7.34021933E-06  6.90574052E-06  6.14590226E-06  4.63977813E-06  4.03527929E-06  3.23129075E-06  2.46031232E-06  1.61170806E-06  1.32494279E-06  1.08516122E-06
      1.46063860E-06  1.61524554E-06  1.66545317E-06  2.30866840E-06  3.57099566E-06  4.19489379E-06  4.65312587E-06  4.91333321E-06  5.29226872E-06  5.25988617E-06  1.59499184E-06  1.59499184E-06  1.59499184E-06  1.59499184E-06  1.59499184E-06  5.36456628E-06  5.75777722E-06  5.39801113E-06  3.95025063E-06  2.56658473E-06  2.00385284E-06  1.31192064E-06  9.23072434E-07  7.37572350E-07  5.80508697E-07  5.20794856E-07  5.16303885E-07  5.27713041E-07  1.00826537E-06  2.09351697E-06  3.97701751E-06  4.98861800E-06  5.69579652E-06  5.74743081E-06  7.00855753E-06  8.26901487E-06  9.29803264E-06  8.67147992E-06  8.06377921E-06  7.87258250E-06  6.57632245E-06  5.09319898E-06  3.74730212E-06  3.03362754E-06  2.69328189E-06  2.59298008E-06  2.49912250E-06  2.16238209E-06  1.82731605E-06  1.41398743E-06  1.19928859E-06  9.53486506E-07  8.88945124E-07  9.24556616E-07  1.08177062E-06  1.54951522E-06  1.70909379E-06  1.74930142E-06  1.58162652E-06  1.14183069E-06  9.37044774E-07  7.65362302E-07  7.91351511E-07  7.87014301E-07  8.60869250E-07  8.25471318E-07  8.29025339E-07  9.53158178E-07  1.05770232E-06  1.41648502E-06  1.67587609E-06  2.19449043E-06  2.79978758E-06  3.17604076E-06  3.41506347E-06  3.67755229E-06  3.59553314E-06  3.05571871E-06  2.18181572E-06  1.57057934E-06  1.15368562E-06  8.49210949E-07  6.00065619E-07  3.86904958E-07  2.76998605E-07  2.80359075E-07  3.36119001E-07  3.60355386E-07  3.70389557E-07  4.71027789E-07  6.17307251E-07  6.89538467E-07  7.82757240E-07  8.56767485E-07  1.00661737E-06  1.26445241E-06  1.63673587E-06  1.90897322E-06  2.30276783E-06  2.36946926E-06  2.24609084E-06  1.62365416E-06  1.14264549E-06  9.69770781E-07  8.85654003E-07  7.50674701E-07  7.34064201E-07  7.83002008E-07  6.35229071E-07  4.91780725E-07  1.59499184E-06  1.59499184E-06  1.59499184E-06  1.59499184E-06  1.59499184E-06  2.52735674E-07  1.78793186E-07  1.68344329E-07  1.86317536E-07  1.93444592E-07  2.45243797E-07  3.48697853E-07  5.02424825E-07  6.93500169E-07  9.37487357E-07  1.33063577E-06  2.25998451E-06  3.31748538E-06  4.74110993E-06  6.77471917E-06  6.98786425E-06  6.30895647E-06  5.89257252E-06  4.90970524E-06  4.12197323E-06  3.77700030E-06  2.83320878E-06  1.84602084E-06  1.61926198E-06  1.45639240E-06
      1.23657458E-06  1.53973701E-06  1.57817067E-06  2.14009583E-06  2.87770308E-06  3.16932528E-06  3.74993306E-06  3.63058462E-06  3.82844428E-06  3.89217485E-06  2.99937165E-06  1.59499184E-06  1.59499184E-06  2.41034445E-06  2.66119946E-06  3.51393737E-06  4.13418684E-06  3.86080501E-06  2.59324588E-06  1.81090923E-06  1.33104550E-06  1.19822380E-06  8.07631409E-07  1.59499184E-06  1.59499184E-06  1.59499184E-06  1.59499184E-06  1.59499184E-06  1.59499184E-06  3.38226187E-06  5.90042873E-06  7.76561137E-06  7.93009622E-06  7.99001009E-06  9.71416466E-06  1.11817799E-05  1.06517964E-05  8.83798930E-06  7.84984786E-06  6.30126851E-06  4.89056674E-06  3.80965548E-06  3.05894650E-06  2.77428853E-06  2.57271768E-06  2.57741203E-06  2.63175571E-06  2.35590596E-06  1.94564177E-06  1.62138963E-06  1.46450020E-06  1.25510724E-06  1.18814410E-06  1.21893083E-06  1.39718031E-06  1.58727426E-06  1.82967051E-06  1.81537121E-06  1.53991982E-06  1.20616664E-06  9.35084358E-07  7.90647277E-07  8.18406818E-07  8.41878148E-07  8.92378409E-07  8.43586520E-07  8.17643979E-07  1.06261393E-06  1.20630193E-06  1.78357732E-06  2.50964285E-06  3.50450409E-06  4.03582862E-06  3.88923945E-06  3.71379838E-06  3.67474740E-06  3.48640856E-06  2.72691068E-06  2.22248900E-06  1.66647078E-06  1.18643459E-06  8.07308140E-07  5.52957772E-07  3.90751580E-07  2.99688253E-07  3.04050644E-07  3.45315840E-07  3.75380750E-07  4.03833099E-07  5.31351077E-07  6.89644878E-07  7.81749634E-07  8.00128646E-07  7.73394902E-07  8.95249002E-07  1.12209784E-06  1.50984204E-06  1.66044038E-06  2.09831023E-06  2.37292556E-06  2.22266021E-06  1.62164417E-06  1.24882547E-06  1.07332198E-06  8.96667075E-07  7.45380135E-07  6.81053621E-07  6.01600220E-07  5.15734371E-07  4.53215478E-07  4.42605767E-07  1.59499184E-06  1.59499184E-06  3.04069005E-07  2.30302916E-07  1.86162239E-07  1.48524293E-07  1.64463245E-07  1.73810193E-07  1.98063347E-07  2.71637049E-07  3.68581027E-07  5.09917356E-07  6.98129952E-07  9.31555235E-07  1.41198359E-06  2.20569268E-06  3.06761967E-06  3.96538962E-06  5.38952736E-06  6.61856848E-06  5.66177459E-06  5.75128843E-06  4.97990914E-06  4.13893304E-06  3.81593418E-06  2.80948643E-06  2.11163479E-06  1.78625737E-06  1.60635977E-06
      1.18325863E-06  1.46112768E-06  1.54901250E-06  1.85549800E-06  2.34968866E-06  3.04436207E-06  3.46604725E-06  3.53185487E-06  3.54397912E-06  2.99728913E-06  2.37935774E-06  2.02664637E-06  1.81868711E-06  1.64404526E-06  1.78299763E-06  2.25469512E-06  2.62025969E-06  2.78410835E-06  1.97000168E-06  1.43636305E-06  1.04621722E-06  1.59499184E-06  1.59499184E-06  1.59499184E-06  1.59499184E-06  1.59499184E-06  1.59499184E-06  1.59499184E-06  1.59499184E-06  1.59499184E-06  1.59499184E-06  9.78680873E-06  9.87414933E-06  1.09258326E-05  1.59499184E-06  1.59499184E-06  1.59499184E-06  7.89646674E-06  1.59499184E-06  1.59499184E-06  1.59499184E-06  1.59499184E-06  1.59499184E-06  3.12369411E-06  2.74795843E-06  2.71197223E-06  2.91922947E-06  2.45923206E-06  1.92077960E-06  1.79190010E-06  1.78580831E-06  1.51854749E-06  1.43048965E-06  1.62394849E-06  1.92219795E-06  1.91954859E-06  1.78969572E-06  1.60399452E-06  1.43295540E-06  1.05695472E-06  8.07426943E-07  7.09840151E-07  6.77425021E-07  7.46107105E-07  8.02415514E-07  8.20651167E-07  7.92293974E-07  1.03034301E-06  1.26047792E-06  1.80390907E-06  3.01675641E-06  3.63026902E-06  3.54271901E-06  3.80608913E-06  4.02486785E-06  4.35160791E-06  3.91083540E-06  3.01052091E-06  2.02868591E-06  1.48805179E-06  1.00636453E-06  7.34784976E-07  5.79687992E-07  4.65106666E-07  3.60893949E-07  3.50148269E-07  3.65763100E-07  3.85084292E-07  4.29608775E-07  5.84243367E-07  7.68558948E-07  8.57312614E-07  7.40603014E-07  7.21252320E-07  8.31509624E-07  8.88279260E-07  1.15748583E-06  1.31162926E-06  1.48419201E-06  1.86295006E-06  1.89688285E-06  1.47306469E-06  1.17011939E-06  1.01413730E-06  8.61422620E-07  7.24925656E-07  6.33430375E-07  5.25061637E-07  4.39928357E-07  4.18365488E-07  3.95568748E-07  3.52625591E-07  3.18865659E-07  2.51365577E-07  2.05025117E-07  1.82330609E-07  1.70330807E-07  1.84513098E-07  2.22394419E-07  2.95479822E-07  3.79261536E-07  4.87141790E-07  6.50758977E-07  7.69302176E-07  9.48441652E-07  1.26770522E-06  2.08112806E-06  2.59816170E-06  3.09070788E-06  3.88145463E-06  1.59499184E-06  1.59499184E-06  1.59499184E-06  4.52857466E-06  4.15790009E-06  3.45114722E-06  2.61801483E-06  2.11720544E-06  1.64777100E-06  1.24737369E-06
      1.07701715E-06  1.29279738E-06  1.48534934E-06  1.90803053E-06  2.41141015E-06  3.22120763E-06  3.18223397E-06  2.95096152E-06  2.74994818E-06  2.64440087E-06  2.16957801E-06  1.69387340E-06  1.41472765E-06  1.19872345E-06  1.15308785E-06  1.31492186E-06  1.51557970E-06  1.57027671E-06  1.33276501E-06  1.00005275E-06  1.59499184E-06  1.59499184E-06  1.59499184E-06  1.59499184E-06  1.59499184E-06  1.59499184E-06  1.59499184E-06  1.59499184E-06  1.59499184E-06  1.59499184E-06  1.59499184E-06  1.59499184E-06  1.59499184E-06  1.59499184E-06  1.59499184E-06  1.59499184E-06  1.59499184E-06  1.59499184E-06  1.59499184E-06  1.59499184E-06  1.59499184E-06  1.59499184E-06  1.59499184E-06  1.59499184E-06  1.59499184E-06  2.14617694E-06  2.28366093E-06  2.22904464E-06  1.90219748E-06  1.98299676E-06  1.96438327E-06  1.82014810E-06  1.80966128E-06  2.10524581E-06  2.10363623E-06  1.75369166E-06  1.65669303E-06  1.23511563E-06  1.04777052E-06  8.85716418E-07  8.01636133E-07  7.20089702E-07  6.95514473E-07  7.19767684E-07  7.58137105E-07  7.94161679E-07  7.60462342E-07  1.00101113E-06  1.30819967E-06  1.85291469E-06  2.42242641E-06  2.72610055E-06  3.40359384E-06  4.33649120E-06  4.56829184E-06  4.07983271E-06  3.03842194E-06  2.09482323E-06  1.39339477E-06  1.01784826E-06  8.38786320E-07  6.13444058E-07  5.65063260E-07  5.23763049E-07  4.64132086E-07  4.36830447E-07  3.99494866E-07  4.21238752E-07  4.57038539E-07  6.09246740E-07  7.97340533E-07  7.42585655E-07  6.03550518E-07  6.44238298E-07  7.76800164E-07  9.27379347E-07  1.05362119E-06  1.26528880E-06  1.37443840E-06  1.58316038E-06  1.65798770E-06  1.40198722E-06  1.11999418E-06  9.11018901E-07  8.64409969E-07  7.08719995E-07  5.55852921E-07  4.57926518E-07  3.63649320E-07  3.47321333E-07  3.31576956E-07  3.20929956E-07  3.03700233E-07  2.60617242E-07  2.46469313E-07  2.23332165E-07  2.20547165E-07  2.60568072E-07  3.40788802E-07  4.45916214E-07  5.60792898E-07  7.07418678E-07  8.34415346E-07  9.65091658E-07  1.10644191E-06  1.15540092E-06  1.59499184E-06  1.59499184E-06  1.59499184E-06  1.59499184E-06  1.59499184E-06  1.59499184E-06  1.59499184E-06  1.59499184E-06  1.59499184E-06  3.08238123E-06  2.55672035E-06  1.98557268E-06  1.39155611E-06  1.11151007E-06
      9.64452397E-07  1.02212778E-06  1.25429654E-06  1.85530246E-06  2.38628468E-06  2.93260587E-06  3.14521799E-06  3.09589473E-06  2.94782080E-06  2.58952650E-06  2.06552386E-06  1.47569642E-06  1.12386749E-06  9.26228950E-07  8.17345892E-07  8.29958481E-07  9.38530093E-07  1.03665616E-06  8.73604165E-07  7.29004171E-07  1.59499184E-06  1.59499184E-06  1.59499184E-06  1.59499184E-06  1.59499184E-06  1.59499184E-06  1.59499184E-06  1.59499184E-06  1.59499184E-06  1.59499184E-06  1.59499184E-06  1.59499184E-06  1.59499184E-06  1.59499184E-06  1.59499184E-06  1.59499184E-06  1.59499184E-06  1.59499184E-06  1.59499184E-06  1.59499184E-06  1.59499184E-06  1.59499184E-06  1.59499184E-06  1.59499184E-06  1.59499184E-06  1.40547570E-06  1.53100996E-06  1.71789566E-06  1.70918565E-06  1.85658610E-06  1.81450173E-06  1.82326994E-06  1.69793930E-06  2.23248276E-06  1.98940802E-06  1.64577034E-06  1.37166580E-06  9.11603365E-07  7.06687615E-07  7.20531716E-07  7.07125082E-07  6.88994135E-07  6.78546428E-07  6.83493056E-07  6.71080841E-07  6.57915507E-07  6.78878678E-07  9.76918159E-07  1.28410420E-06  1.42248382E-06  2.06042614E-06  2.43037266E-06  3.04622586E-06  4.10515213E-06  3.75529316E-06  3.09287611E-06  2.36691653E-06  1.73639899E-06  1.34951677E-06  9.75636226E-07  8.37327320E-07  6.33021273E-07  5.33885043E-07  4.42831293E-07  4.12276364E-07  4.07981730E-07  3.97317223E-07  3.87304681E-07  4.25034756E-07  5.02595640E-07  6.40218047E-07  6.30235206E-07  5.38558822E-07  6.05286118E-07  7.74477314E-07  9.69121743E-07  1.10549399E-06  1.24903681E-06  1.32737841E-06  1.43743443E-06  1.45041963E-06  1.20391110E-06  9.73475949E-07  7.69842359E-07  6.06156789E-07  5.38364020E-07  4.61513451E-07  4.00391940E-07  3.18319167E-07  2.88943738E-07  3.02563166E-07  3.23641189E-07  3.15990974E-07  2.77228565E-07  2.77796062E-07  2.75386185E-07  2.88395654E-07  3.16876992E-07  3.91273772E-07  5.49428023E-07  6.98293832E-07  8.75632168E-07  9.67378583E-07  1.12004591E-06  1.59499184E-06  1.59499184E-06  1.59499184E-06  1.59499184E-06  1.59499184E-06  1.59499184E-06  1.59499184E-06  1.59499184E-06  1.59499184E-06  1.59499184E-06  1.59499184E-06  2.67281894E-06  2.31168133E-06  1.60494756E-06  1.26427506E-06  8.96785650E-07
      8.16170825E-07  9.39752283E-07  1.21414053E-06  1.88606316E-06  2.43087561E-06  2.86070281E-06  2.98821556E-06  3.33995808E-06  3.12813995E-06  2.61852983E-06  1.89067816E-06  1.28010606E-06  1.01050216E-06  8.23465541E-07  6.54790426E-07  6.11781616E-07  6.66342487E-07  7.34632920E-07  6.89772605E-07  5.92252263E-07  1.59499184E-06  1.59499184E-06  1.59499184E-06  1.59499184E-06  1.59499184E-06  1.59499184E-06  1.59499184E-06  1.59499184E-06  1.59499184E-06  1.59499184E-06  1.59499184E-06  1.59499184E-06  1.59499184E-06  1.59499184E-06  1.59499184E-06  1.59499184E-06  1.59499184E-06  1.59499184E-06  1.59499184E-06  1.59499184E-06  1.59499184E-06  1.59499184E-06  1.59499184E-06  1.59499184E-06  1.59499184E-06  1.59499184E-06  8.55257611E-07  1.30518220E-06  1.61617186E-06  1.59066701E-06  1.68340398E-06  1.72451166E-06  1.63247250E-06  1.63569518E-06  1.54000793E-06  1.39291546E-06  1.05986703E-06  8.22023026E-07  6.56981172E-07  6.38594031E-07  6.04522313E-07  6.02423938E-07  5.75508977E-07  5.92163929E-07  5.38306153E-07  4.68445023E-07  5.46802880E-07  6.98485849E-07  8.54808377E-07  1.14712668E-06  1.67749772E-06  2.09243512E-06  2.80668678E-06  3.30888975E-06  2.91207903E-06  2.54156112E-06  1.99744068E-06  1.51531196E-06  1.11748227E-06  9.77074933E-07  8.55111978E-07  6.35907156E-07  4.93560663E-07  4.03183009E-07  3.47080345E-07  3.47157624E-07  3.84876103E-07  4.07841810E-07  3.78318589E-07  3.91319304E-07  5.04158436E-07  5.26996303E-07  5.36601931E-07  6.33022296E-07  7.83760072E-07  1.01938178E-06  1.00400473E-06  1.06487948E-06  9.78885396E-07  1.10777887E-06  1.15972909E-06  9.78916887E-07  6.93166839E-07  6.18894774E-07  5.49906758E-07  4.56871277E-07  4.17856370E-07  3.71511476E-07  3.38639666E-07  3.20005000E-07  3.48992359E-07  3.74249510E-07  3.31809360E-07  3.15503144E-07  3.19423236E-07  3.41079868E-07  3.54622074E-07  4.55112740E-07  5.54897326E-07  6.93801553E-07  8.31657587E-07  9.87271278E-07  1.05539721E-06  1.30199476E-06  1.59499184E-06  1.59499184E-06  1.59499184E-06  1.59499184E-06  1.59499184E-06  1.59499184E-06  1.59499184E-06  1.59499184E-06  1.59499184E-06  1.59499184E-06  1.59499184E-06  2.72481839E-06  1.97704503E-06  1.28318413E-06  9.11777647E-07  6.38992503E-07
      8.39413929E-07  1.06453842E-06  1.34118920E-06  1.85530837E-06  1.99300985E-06  2.52795280E-06  3.04791888E-06  3.31713477E-06  2.93804624E-06  2.40215218E-06  1.60536149E-06  1.08427696E-06  8.88899194E-07  6.69850635E-07  5.12355200E-07  4.60032879E-07  5.23632025E-07  5.53705092E-07  5.38652557E-07  5.68402299E-07  1.59499184E-06  1.59499184E-06  1.59499184E-06  1.59499184E-06  1.59499184E-06  1.59499184E-06  1.59499184E-06  1.59499184E-06  1.59499184E-06  1.59499184E-06  1.59499184E-06  1.59499184E-06  1.59499184E-06  1.59499184E-06  1.59499184E-06  1.59499184E-06  1.59499184E-06  1.59499184E-06  1.59499184E-06  1.59499184E-06  1.59499184E-06  1.59499184E-06  1.59499184E-06  1.59499184E-06  1.59499184E-06  1.59499184E-06  1.59499184E-06  1.13673514E-06  1.45897138E-06  1.56321005E-06  1.45543686E-06  1.41541227E-06  1.36789868E-06  1.29038597E-06  1.23222651E-06  1.10820997E-06  8.07031483E-07  6.57969963E-07  5.24817779E-07  5.05665071E-07  4.44045838E-07  4.32640434E-07  4.27687667E-07  4.97076712E-07  4.56269390E-07  4.20810721E-07  5.17651245E-07  6.78569450E-07  7.92352125E-07  1.03988759E-06  1.56619512E-06  1.90458525E-06  2.32520210E-06  2.75426464E-06  2.70983514E-06  2.47952357E-06  1.89848015E-06  1.42299871E-06  1.12843009E-06  9.94949005E-07  8.12061103E-07  7.11846553E-07  5.11456847E-07  4.02256745E-07  3.45665114E-07  3.34783010E-07  3.77021934E-07  3.85019462E-07  3.29273092E-07  3.23195081E-07  3.89037950E-07  4.41742117E-07  5.10250231E-07  6.62929438E-07  8.44621354E-07  9.72310090E-07  9.89712248E-07  1.02797026E-06  8.94496395E-07  8.78090589E-07  8.72393343E-07  7.35977778E-07  5.94021003E-07  5.41512634E-07  5.18886225E-07  4.83447025E-07  4.38506845E-07  4.49166862E-07  4.49949681E-07  3.97220361E-07  4.51749742E-07  4.92725974E-07  4.47067947E-07  4.09406823E-07  4.01644684E-07  4.90543414E-07  5.20293554E-07  5.60820979E-07  6.98263648E-07  7.98881445E-07  9.09153016E-07  1.08424149E-06  1.30906187E-06  1.69084990E-06  1.59499184E-06  1.59499184E-06  1.59499184E-06  1.59499184E-06  1.59499184E-06  1.59499184E-06  1.59499184E-06  1.59499184E-06  1.59499184E-06  1.59499184E-06  1.59499184E-06  2.24475343E-06  1.68183544E-06  1.06161303E-06  7.39162886E-07  5.39295911E-07
      8.06461003E-07  1.12958128E-06  1.54053885E-06  1.90234175E-06  2.06355480E-06  2.45116780E-06  2.76110268E-06  3.03091656E-06  2.52278392E-06  2.07508515E-06  1.30587318E-06  8.45527950E-07  7.00491171E-07  5.52858808E-07  5.16824912E-07  4.32131912E-07  5.13166299E-07  4.73156206E-07  4.81547886E-07  6.00703004E-07  1.59499184E-06  1.59499184E-06  1.59499184E-06  1.59499184E-06  1.59499184E-06  1.59499184E-06  1.59499184E-06  1.59499184E-06  1.59499184E-06  1.59499184E-06  1.59499184E-06  1.59499184E-06  1.59499184E-06  1.59499184E-06  1.59499184E-06  1.59499184E-06  1.59499184E-06  1.59499184E-06  1.59499184E-06  1.59499184E-06  1.59499184E-06  1.59499184E-06  1.59499184E-06  1.59499184E-06  1.59499184E-06  1.59499184E-06  1.59499184E-06  1.59499184E-06  1.59499184E-06  1.70757926E-06  1.36723611E-06  1.31269280E-06  1.22426593E-06  1.23838220E-06  1.00034617E-06  8.29011697E-07  6.39942982E-07  4.75634636E-07  3.68272680E-07  3.48205504E-07  3.27722546E-07  3.19752104E-07  3.35669824E-07  3.60288681E-07  3.58841788E-07  3.41991722E-07  4.54683828E-07  6.16723469E-07  7.73014335E-07  1.06446623E-06  1.44669150E-06  1.91825097E-06  2.19161211E-06  2.25733243E-06  2.35854577E-06  2.13918884E-06  1.67153166E-06  1.23476821E-06  1.03667219E-06  9.20285231E-07  7.51105404E-07  6.77597882E-07  5.08528387E-07  4.12357394E-07  4.31412900E-07  3.78563840E-07  3.31772185E-07  3.32133908E-07  2.93159530E-07  3.00435318E-07  3.12999219E-07  3.59941708E-07  5.21057814E-07  6.43270880E-07  7.73064471E-07  1.01265346E-06  1.13563522E-06  1.03017192E-06  9.06465345E-07  8.03101386E-07  7.89745286E-07  6.33597040E-07  5.88429373E-07  4.86443071E-07  4.62719299E-07  4.66516269E-07  5.02099169E-07  5.82828250E-07  5.89255137E-07  5.92079800E-07  6.83031431E-07  6.76233071E-07  6.78271931E-07  6.08374535E-07  6.06546678E-07  6.71671444E-07  8.07291144E-07  8.81937353E-07  9.65083586E-07  1.14811019E-06  1.25494500E-06  1.36909500E-06  1.55138923E-06  1.86880504E-06  1.59499184E-06  1.59499184E-06  1.59499184E-06  1.59499184E-06  1.59499184E-06  1.59499184E-06  1.59499184E-06  1.59499184E-06  1.59499184E-06  1.59499184E-06  1.59499184E-06  1.53523843E-06  1.33205594E-06  8.49062189E-07  6.13736120E-07  4.59084049E-07
      8.80715618E-07  1.12301484E-06  1.40955206E-06  1.96475639E-06  2.36784945E-06  2.49986010E-06  2.49360755E-06  2.56434964E-06  2.44073226E-06  1.83776956E-06  1.14203829E-06  6.87028432E-07  5.33966499E-07  4.57088305E-07  4.33714177E-07  4.20386243E-07  4.45488752E-07  4.44032622E-07  4.63622655E-07  1.59499184E-06  1.59499184E-06  1.59499184E-06  1.59499184E-06  1.59499184E-06  1.59499184E-06  1.59499184E-06  1.59499184E-06  1.59499184E-06  1.59499184E-06  1.59499184E-06  1.59499184E-06  1.59499184E-06  1.59499184E-06  1.59499184E-06  1.59499184E-06  1.59499184E-06  1.59499184E-06  1.59499184E-06  1.59499184E-06  1.59499184E-06  1.59499184E-06  1.59499184E-06  1.59499184E-06  1.59499184E-06  1.59499184E-06  1.59499184E-06  1.59499184E-06  1.59499184E-06  1.59499184E-06  1.59499184E-06  1.45664569E-06  1.36840379E-06  1.34106335E-06  1.12235693E-06  8.28670409E-07  6.07783193E-07  4.39420830E-07  3.15819705E-07  2.34819211E-07  2.40839967E-07  2.33602449E-07  2.35770059E-07  2.69999958E-07  2.73132855E-07  2.78242425E-07  3.13737331E-07  4.22197559E-07  5.62051127E-07  7.18965623E-07  1.04636047E-06  1.47047388E-06  1.76243793E-06  2.35763218E-06  2.25971553E-06  2.21274286E-06  1.83119619E-06  1.41331384E-06  1.13951080E-06  9.43916405E-07  8.84077110E-07  8.22948493E-07  8.60129433E-07  6.57571832E-07  5.42057819E-07  5.17460194E-07  4.00717596E-07  3.60802147E-07  3.08790845E-07  2.68800790E-07  2.70752423E-07  2.94005275E-07  3.29232705E-07  4.85959561E-07  6.30450018E-07  7.95210838E-07  9.36965137E-07  1.11916358E-06  1.09908012E-06  1.04424976E-06  7.95718449E-07  6.72826047E-07  6.61141371E-07  6.70067209E-07  4.92483309E-07  4.26097728E-07  4.60430243E-07  5.54279211E-07  8.20447951E-07  9.84372036E-07  1.00131479E-06  1.05799006E-06  1.16490332E-06  1.16133867E-06  1.09988264E-06  1.10579617E-06  1.12510088E-06  1.33455046E-06  1.37525819E-06  1.47739740E-06  1.57072225E-06  1.46082493E-06  1.60410013E-06  1.78187599E-06  1.86919510E-06  1.81277414E-06  1.59499184E-06  1.59499184E-06  1.59499184E-06  1.59499184E-06  1.59499184E-06  1.59499184E-06  1.59499184E-06  1.59499184E-06  1.59499184E-06  1.59499184E-06  1.06428081E-06  9.19286208E-07  6.69275721E-07  5.82404311E-07  4.81312895E-07
      6.94146536E-07  8.50288984E-07  1.13988415E-06  1.70466467E-06  2.17199226E-06  2.37935842E-06  2.31217382E-06  2.41405724E-06  2.32088973E-06  1.53492203E-06  9.53913172E-07  6.37249627E-07  4.70210580E-07  3.69912271E-07  3.02342841E-07  2.98573752E-07  3.75366454E-07  3.78542182E-07  4.53141212E-07  1.59499184E-06  1.59499184E-06  1.59499184E-06  1.59499184E-06  1.59499184E-06  1.59499184E-06  1.59499184E-06  1.59499184E-06  1.59499184E-06  1.59499184E-06  1.59499184E-06  1.59499184E-06  1.59499184E-06  1.59499184E-06  1.59499184E-06  1.59499184E-06  1.59499184E-06  1.59499184E-06  1.59499184E-06  1.59499184E-06  1.59499184E-06  1.59499184E-06  1.59499184E-06  1.59499184E-06  1.59499184E-06  1.59499184E-06  1.59499184E-06  1.59499184E-06  1.59499184E-06  1.59499184E-06  1.59499184E-06  1.59499184E-06  1.34954541E-06  1.24648795E-06  9.42512429E-07  5.28297051E-07  3.95872775E-07  2.53324430E-07  1.99024768E-07  1.50641483E-07  1.41384746E-07  1.32779391E-07  1.33101835E-07  1.42054219E-07  1.45994179E-07  1.67355481E-07  2.42676862E-07  3.51943868E-07  5.53879204E-07  7.70132715E-07  1.03409275E-06  1.51668871E-06  2.26868383E-06  2.94492270E-06  2.91558035E-06  2.46601439E-06  1.91450454E-06  1.45966317E-06  1.06560719E-06  9.49906735E-07  8.68847849E-07  8.15551857E-07  8.08097127E-07  7.08932191E-07  6.47908166E-07  5.67644406E-07  4.19342484E-07  3.72792726E-07  3.18237880E-07  2.87775464E-07  2.90232549E-07  3.06698098E-07  3.69305951E-07  5.33352363E-07  7.48248226E-07  8.99681709E-07  1.10960787E-06  1.33046171E-06  1.27140538E-06  1.13938961E-06  9.72130692E-07  8.65357265E-07  7.61040326E-07  6.47842398E-07  5.35410436E-07  5.01044269E-07  4.93018831E-07  6.16144064E-07  1.05464426E-06  1.37741392E-06  1.60668606E-06  1.80293478E-06  1.93619917E-06  1.92367361E-06  1.90872220E-06  2.05159745E-06  2.16051080E-06  2.10022267E-06  1.74689922E-06  1.57757529E-06  1.81289522E-06  1.85663100E-06  1.82386884E-06  2.15530076E-06  2.24353857E-06  2.02613910E-06  1.55409577E-06  1.59499184E-06  1.59499184E-06  1.59499184E-06  1.59499184E-06  1.59499184E-06  1.59499184E-06  1.59499184E-06  1.59499184E-06  1.59499184E-06  8.86812131E-07  7.25794393E-07  6.35111235E-07  6.19945467E-07  6.63057108E-07