# File generated by Flopy version 3.9.1 on 06/11/2025 at 10:23:19.
BEGIN options
END options

BEGIN griddata
  strt
    CONSTANT       1.00000000
END griddata

