# File generated by Flopy version 3.9.2 on 06/19/2025 at 14:05:38.
BEGIN options
END options

BEGIN griddata
  strt
    CONSTANT       1.00000000
END griddata

