# File generated by Flopy version 3.9.5 on 11/03/2025 at 10:11:31.
BEGIN options
  COMPLEXITY  moderate
END options

BEGIN linear
  INNER_DVCLOSE  1.00000000E-05
END linear

