# File generated by Flopy version 3.9.3 on 06/09/2025 at 12:22:55.
BEGIN options
  COMPLEXITY  moderate
END options

BEGIN linear
  INNER_DVCLOSE  1.00000000E-05
END linear

