# File generated by Flopy version 3.9.3 on 09/16/2025 at 10:13:56.
BEGIN options
END options

BEGIN packages
  OC6  test.oc  oc
  IC6  test.ic  ic
  DIS6  test.dis  dis
  NPF6  test.npf  npf
  CHD6  test.chd  chd-1
  CHD6  test_0.chd  chd-2
  WEL6  test.wel  wel-inj
END packages

