# File generated by Flopy version 3.9.5 on 12/11/2025 at 15:18:14.
BEGIN options
END options

BEGIN packages
  OC6  test.oc  oc
  IC6  test.ic  ic
  DIS6  test.dis  dis
  NPF6  test.npf  npf
  CHD6  test.chd  chd-1
  CHD6  test_0.chd  chd-2
  WEL6  test.wel  wel-inj
END packages

