# File generated by Flopy version 3.9.3 on 06/09/2025 at 12:22:55.
BEGIN options
END options

BEGIN griddata
  strt
    CONSTANT       1.00000000
END griddata

