# File generated by Flopy version 3.9.3 on 10/06/2025 at 15:31:26.
BEGIN options
  SAVE_FLOWS
  SAVE_SPECIFIC_DISCHARGE
  SAVE_SATURATION
END options

BEGIN griddata
  icelltype
    CONSTANT  0
  k  LAYERED
    INTERNAL  FACTOR  1.0
      3.22537671E-05  3.09831114E-05  4.87450678E-05  7.05515558E-05  1.33251102E-04  1.59598567E-04  2.35252504E-04  2.98804836E-04  4.07814718E-04  6.85625360E-04       0.00130805       0.00262823       0.00469173       0.00585287       0.00408020       0.00198744       0.00113972  6.64511463E-04  3.09955591E-04  1.60550524E-04  7.26477374E-05  3.45488297E-05  2.04483193E-05  2.42933238E-05  3.61779263E-05  6.99183244E-05  1.31290240E-04  2.78093183E-04  4.92447418E-04  5.94391850E-04  6.04288653E-04  5.64336880E-04  5.66851710E-04  9.01035382E-04       0.00171756       0.00138664  7.49483937E-04  5.17553126E-04  2.81985587E-04  2.06160941E-04  1.77989520E-04  1.65805402E-04  1.64583933E-04  1.90985518E-04  3.46762775E-04  4.31670988E-04  5.46387345E-04  5.52295138E-04  5.30788675E-04  4.20442886E-04  4.91925981E-04  5.17240434E-04  6.18153892E-04  5.65947433E-04  5.79182192E-04  5.60527706E-04  5.32502122E-04  5.17511275E-04  5.14308379E-04  5.33018222E-04  5.32726369E-04  6.06820337E-04  6.15015393E-04  5.27607510E-04  4.00011661E-04  2.18901187E-04  1.63203309E-04  1.34545160E-04  1.35743277E-04  1.72326181E-04  2.08475292E-04  1.69765175E-04  1.18133648E-04  8.15217500E-05  4.76326459E-05  3.98928751E-05  3.17747472E-05  2.77894530E-05  2.50782905E-05  1.92243715E-05  1.76236481E-05  1.96014211E-05  3.39194434E-05  6.89610315E-05  1.22025919E-04  1.75191381E-04  1.98443284E-04  2.07470264E-04  2.76283419E-04  2.84052667E-04  2.58597739E-04  2.73609185E-04  2.79448793E-04  3.07348224E-04  2.74256163E-04  3.01282523E-04  3.71362432E-04  4.48481607E-04  4.72396224E-04  4.56452649E-04
      4.52759326E-05  4.21768216E-05  6.88833469E-05  9.23303523E-05  1.60672731E-04  2.11215898E-04  2.94149155E-04  3.42652842E-04  4.62427008E-04  5.86887181E-04       0.00101385       0.00192575       0.00352677       0.00502772       0.00440057       0.00253135       0.00136950  7.84273434E-04  3.86364467E-04  1.63989782E-04  8.30209901E-05  3.68196015E-05  2.14141750E-05  1.85152724E-05  2.62777550E-05  4.03990853E-05  8.02768482E-05  1.68449866E-04  2.46789281E-04  3.88089498E-04  4.14789747E-04  4.48179618E-04  5.27646134E-04  8.92725256E-04       0.00141030       0.00133149  8.51196651E-04  5.14220653E-04  4.12125503E-04  2.52276762E-04  2.08122865E-04  1.81376142E-04  1.97350940E-04  2.92749248E-04  4.08447089E-04  5.07553677E-04  5.75886936E-04  5.15118397E-04  5.18593265E-04  4.26607957E-04  5.61531012E-04  5.91357808E-04  6.11007446E-04  6.20440347E-04  5.26980065E-04  5.06365517E-04  5.04891295E-04  4.80254763E-04  4.28584230E-04  4.44238307E-04  5.68838014E-04  6.32421579E-04  6.65453437E-04  5.91088494E-04  3.90174508E-04  2.30225938E-04  1.17656135E-04  8.56556362E-05  8.45273389E-05  1.13420501E-04  1.42995879E-04  1.34549598E-04  9.66511652E-05  7.46802398E-05  5.69409276E-05  3.64863105E-05  3.54542353E-05  3.59473876E-05  3.25325491E-05  2.85761525E-05  3.15753539E-05  3.74889176E-05  6.23173197E-05  1.13085588E-04  1.76669750E-04  2.11329106E-04  2.01063347E-04  2.04182405E-04  2.02505034E-04  1.59350951E-04  1.56329421E-04  1.87126648E-04  1.94709632E-04  2.16801728E-04  1.95289981E-04  2.32327477E-04  3.30891965E-04  3.85814657E-04  4.95971367E-04  4.69076168E-04
      4.85028916E-05  4.96464329E-05  8.22337396E-05  1.09039443E-04  1.56027760E-04  1.91007130E-04  2.36306703E-04  3.36854951E-04  4.72697167E-04  5.33381593E-04  7.93031009E-04       0.00142766       0.00237600       0.00303957       0.00308198       0.00241028       0.00156339  9.28098161E-04  3.99204000E-04  1.86896315E-04  9.33950651E-05  4.13053494E-05  2.41591842E-05  2.01493822E-05  2.70301659E-05  3.99488708E-05  5.95435397E-05  8.90427502E-05  1.34457974E-04  2.31751055E-04  2.41457974E-04  3.03094555E-04  4.10679821E-04  6.11108914E-04  7.47357185E-04  7.32379189E-04  6.24277991E-04  5.20668613E-04  3.89404000E-04  3.36524617E-04  3.21723081E-04  2.30249995E-04  2.81497114E-04  4.01230089E-04  4.26596548E-04  5.56255587E-04  4.70674550E-04  4.68119048E-04  4.36829351E-04  4.32934845E-04  4.72084340E-04  5.52098629E-04  5.45471338E-04  5.93770528E-04  5.57658562E-04  4.44558876E-04  4.07873280E-04  3.75751348E-04  3.33506643E-04  3.82231898E-04  4.27080008E-04  4.88547375E-04  5.35883824E-04  4.41588287E-04  3.49190901E-04  1.99200382E-04  8.46833937E-05  4.51730666E-05  4.79851697E-05  6.18961494E-05  8.52267331E-05  9.04531626E-05  7.68075843E-05  6.31698204E-05  4.27241466E-05  3.86706864E-05  4.46491273E-05  5.03553929E-05  4.11579640E-05  3.91882670E-05  4.79528826E-05  6.29858288E-05  1.07082352E-04  1.73010165E-04  2.01532012E-04  2.21722526E-04  2.19166325E-04  1.91476448E-04  1.68410188E-04  1.31895727E-04  1.34335773E-04  1.49245432E-04  1.55356257E-04  1.63118491E-04  1.48048508E-04  1.69416785E-04  2.50742049E-04  3.53799597E-04  4.59644618E-04  3.76155647E-04
      5.29824853E-05  5.08433732E-05  7.70745828E-05  1.27355626E-04  1.69149454E-04  2.41387752E-04  2.62838090E-04  3.54268821E-04  5.56568964E-04  6.72331953E-04  6.68194261E-04       0.00113769       0.00170848       0.00199061       0.00201240       0.00194803       0.00167227       0.00103250  5.23705443E-04  2.70621793E-04  1.09163043E-04  5.11667264E-05  2.44427772E-05  2.12739560E-05  2.36044089E-05  2.91091856E-05  3.27965332E-05  5.02553038E-05  7.93193255E-05  1.31260064E-04  1.35549355E-04  2.15128360E-04  2.82726547E-04  4.12814785E-04  5.07486891E-04  5.36492560E-04  5.21739997E-04  5.48203734E-04  4.36726026E-04  4.36640293E-04  4.08040049E-04  3.73872126E-04  3.42567865E-04  3.99383344E-04  5.08657936E-04  4.83163958E-04  3.91470781E-04  4.86701727E-04  4.45993384E-04  4.27973457E-04  5.23759611E-04  5.21998542E-04  5.54931712E-04  4.71460400E-04  4.64749256E-04  3.72141067E-04  3.52900398E-04  3.04647931E-04  2.76434555E-04  2.57454192E-04  2.39547769E-04  2.83712317E-04  2.80271226E-04  2.46034760E-04  1.77362293E-04  8.88289505E-05  4.24942082E-05       1.00000000  2.22007347E-05  3.03861743E-05  4.56235648E-05  5.09936799E-05  5.38557288E-05  5.10903919E-05  4.49874011E-05  4.79766350E-05  5.61154447E-05  6.57420824E-05  6.44524640E-05  8.66347749E-05  1.09563780E-04  1.04311306E-04  1.31313945E-04  2.10299180E-04  2.71317246E-04  2.69395299E-04  2.38227542E-04  1.58940896E-04  1.20869576E-04  9.89576414E-05  1.16461675E-04  1.51637476E-04  1.29815851E-04  1.24230971E-04  1.08216336E-04  1.20683422E-04  1.78284862E-04  2.65641208E-04  3.84553056E-04  3.38891676E-04
      5.43615703E-05  5.31385085E-05  7.55670699E-05  9.98905016E-05  1.29399661E-04  1.88530408E-04  2.16642380E-04  2.77914456E-04  4.02710255E-04  6.25416287E-04  6.40312808E-04  9.40482598E-04       0.00110046       0.00140686       0.00128413       0.00120519       0.00129861       0.00100346  6.22557360E-04  3.42200953E-04  1.30924629E-04  5.70291221E-05  2.45210304E-05  1.73245371E-05  2.21189855E-05  1.97086993E-05  1.85376729E-05  2.71918058E-05  3.85425398E-05  7.10844518E-05  8.56746240E-05  1.09710815E-04  1.78591348E-04  2.76385722E-04  3.89278936E-04  5.00269886E-04  5.26409855E-04  5.39486814E-04  5.92416411E-04  6.04514860E-04  5.94751651E-04  4.47711390E-04  4.09454263E-04  5.05702151E-04  5.77948801E-04  4.52021230E-04  3.23527912E-04  4.03827848E-04  4.47639124E-04  4.41697892E-04  5.71370637E-04  6.42337650E-04  4.87818486E-04  3.81728023E-04  3.10281379E-04  3.12563298E-04  3.07745184E-04  2.55607930E-04  2.25884886E-04  1.82867661E-04  1.58765043E-04  1.48374544E-04  1.33448513E-04  1.02203143E-04  7.78218164E-05  4.25101680E-05       1.00000000       1.00000000  1.41964019E-05  1.50466785E-05  2.03004674E-05  3.10837022E-05  3.69933805E-05  4.95772159E-05  6.58848973E-05  9.49668974E-05  1.11704424E-04  1.17020716E-04  1.51114597E-04  1.97064574E-04  2.42335815E-04  2.08945887E-04  1.99911534E-04  2.36902619E-04  2.77656876E-04  2.64903111E-04  2.19989358E-04  1.32094196E-04  9.76204756E-05  8.69860135E-05  8.70515942E-05  1.06047053E-04  9.61814173E-05  8.98008875E-05  8.28580911E-05  1.05899138E-04  1.49452186E-04  2.24867525E-04  3.07449993E-04  2.70164688E-04
      6.68055727E-05  5.67250972E-05  5.77638020E-05  8.05336458E-05  1.13543138E-04  1.42842779E-04  1.60747455E-04  2.17183289E-04  3.46457906E-04  4.73218999E-04  5.50673634E-04  6.95286385E-04  7.65089611E-04  8.92141135E-04  8.97235237E-04  8.22617486E-04  9.80338431E-04  9.47054301E-04  7.14481948E-04  3.46138220E-04  1.31110353E-04  4.84579068E-05  2.66321569E-05  1.99715917E-05  1.79494076E-05  1.35230141E-05  1.37108376E-05  1.51626567E-05  2.56035284E-05  4.00663837E-05  5.08181693E-05  6.23444018E-05  1.00606407E-04  2.11472665E-04  2.73601664E-04  3.58756841E-04  4.02578153E-04  4.31518924E-04  5.73492299E-04  6.03429145E-04  7.47133150E-04  5.68593335E-04  5.99587895E-04  7.29290023E-04  7.80521380E-04  5.99756075E-04  4.65125184E-04  4.17432409E-04  5.70817199E-04  7.72477034E-04  8.09996575E-04  7.21475249E-04  5.66914419E-04  3.82058995E-04  3.35750694E-04  2.65536414E-04  2.32989318E-04  2.19690070E-04  1.47093169E-04  1.09770008E-04  7.87289512E-05  6.87641877E-05  5.65850060E-05  4.33255918E-05  3.23325694E-05       1.00000000       1.00000000       1.00000000       1.00000000  1.03820257E-05  1.43828984E-05  2.03168765E-05  2.90205959E-05  5.00590977E-05  9.60545149E-05  1.54317531E-04  2.04340136E-04  2.72769481E-04  2.88841152E-04  3.63511538E-04  3.77531396E-04  2.69632806E-04  2.40155729E-04  2.80538302E-04  2.74577799E-04  2.17482331E-04  1.55478735E-04  9.68929574E-05  7.34633068E-05  6.32112157E-05  5.48578440E-05  7.04293731E-05  8.38194295E-05  7.34983817E-05  6.56611228E-05  7.61230379E-05  1.13551844E-04  1.78177647E-04  2.21113480E-04  2.30657655E-04
      6.35189936E-05  5.23800663E-05  4.67420832E-05  5.60916633E-05  7.53652130E-05  9.35791832E-05  1.18064891E-04  1.71883919E-04  2.41254020E-04  3.34441691E-04  3.71766277E-04  5.00390938E-04  5.31824810E-04  6.37043888E-04  5.76769514E-04  5.25853643E-04  7.00084725E-04  7.19432160E-04  6.02545496E-04  3.16231492E-04  1.41024739E-04  6.23105880E-05  3.24738309E-05  2.29188459E-05  1.73603237E-05  1.04257183E-05  8.78939682E-06  1.24463343E-05  2.04852751E-05  3.03256540E-05  3.03145834E-05  3.91325545E-05  5.97584052E-05  1.22320023E-04  1.95023965E-04  2.65015266E-04  3.78317200E-04  4.61106085E-04  5.28993758E-04  5.52140125E-04  7.90518191E-04  8.01042861E-04  7.85345118E-04  9.30488762E-04       0.00101289  9.89189625E-04  8.27708366E-04  6.48959354E-04  8.32279161E-04       0.00104064       0.00111658  9.71370563E-04  6.55415282E-04  4.08689207E-04  2.52020080E-04  2.05038275E-04  1.73890348E-04  1.55570199E-04  1.15674816E-04  6.75223637E-05  3.55196535E-05  2.90888383E-05  2.60002962E-05  2.50477606E-05  2.29367470E-05       1.00000000       1.00000000       1.00000000       1.00000000  9.88111151E-06  1.26887771E-05  2.26465199E-05  3.45095080E-05  6.14382346E-05  1.25100560E-04  2.43906572E-04  4.02029697E-04  5.12906397E-04  5.06241573E-04  5.52339208E-04  4.73513074E-04  3.10137674E-04  2.05716368E-04  2.15763193E-04  1.89817588E-04  1.32594471E-04  9.19252343E-05  5.70296882E-05  4.65590468E-05  3.22020302E-05  2.65329460E-05  4.04015639E-05  5.91566738E-05  6.54140701E-05  5.40261341E-05  7.26360546E-05  1.18961742E-04  1.60186813E-04  1.66482350E-04  1.76767386E-04
      6.75588453E-05  5.30528923E-05  5.30085708E-05  4.88055193E-05  5.01074719E-05  6.65199623E-05  9.32019029E-05  1.20829194E-04  1.68241982E-04  2.00320923E-04  2.38229579E-04  2.93297826E-04  3.22893960E-04  4.29908667E-04  3.60196029E-04  3.50143248E-04  4.58894530E-04  5.02908183E-04  3.72732524E-04  2.31226091E-04  1.47372883E-04  7.42957475E-05  3.91352611E-05  2.23027804E-05  1.68823529E-05  1.10624569E-05  6.98782120E-06  9.89799870E-06  1.62462037E-05  1.90151645E-05  2.06482162E-05  2.58385019E-05  3.91566306E-05  7.39132943E-05  1.36496325E-04  2.00664229E-04  3.11823769E-04  4.31386314E-04  5.23652467E-04  5.79166433E-04  6.69835446E-04  8.11601430E-04       0.00117332       0.00136265       0.00123902       0.00123582       0.00133994       0.00120515       0.00144944       0.00134715       0.00144817       0.00127372  8.56620446E-04  5.26977186E-04  3.05967250E-04  1.61187563E-04  1.12389896E-04  8.57055711E-05  5.76106482E-05  2.83778991E-05  1.37301055E-05  1.15345465E-05  1.29662476E-05  1.39329613E-05  1.59285973E-05       1.00000000       1.00000000       1.00000000       1.00000000  1.07240839E-05  1.63379009E-05  3.16013575E-05  5.41644016E-05  9.98338146E-05  1.93738524E-04  3.86389943E-04  6.02880958E-04  6.93901326E-04  5.38531574E-04  5.84845198E-04  4.98398161E-04  3.50359168E-04  2.52407809E-04  2.01684223E-04  1.52252249E-04  9.27969398E-05  5.64173263E-05  3.49074793E-05  2.45108448E-05  1.76460266E-05  1.69883145E-05  1.96162606E-05  3.02009212E-05  4.30703464E-05  5.62178320E-05  6.26295514E-05  8.71442802E-05  1.32324473E-04  1.56762012E-04  1.49084654E-04
      7.11532848E-05  5.65102746E-05  5.10259415E-05  4.09944665E-05  3.23575041E-05  3.74980227E-05  5.07121658E-05  6.98447839E-05  1.19359000E-04  1.48826075E-04  1.71414955E-04  2.35357555E-04  2.75473776E-04  2.63432080E-04  2.26310641E-04  2.27243849E-04  2.70268600E-04  3.42031289E-04  2.60690576E-04  2.05160950E-04  1.52752269E-04  9.32564661E-05  5.19519963E-05  2.50174431E-05  1.42842804E-05  1.03774388E-05  6.45109685E-06  6.74237223E-06  1.04866485E-05  1.41653402E-05  1.58262914E-05  2.00582338E-05  2.84805428E-05  4.84122588E-05  8.88388546E-05  1.57446368E-04  2.31485488E-04  2.77561601E-04  2.82981278E-04  3.50932228E-04  4.78556566E-04  6.63949270E-04  9.39748716E-04       0.00126652       0.00143068       0.00189872       0.00178991       0.00170902       0.00220633       0.00195612       0.00184504       0.00172149       0.00124420  6.59511632E-04  2.94215395E-04  1.40339427E-04  7.65574015E-05  3.94183502E-05  2.55629056E-05  1.37144980E-05  9.10169183E-06  7.82533516E-06  7.57001180E-06  7.78717276E-06  9.31325394E-06       1.00000000       1.00000000       1.00000000  1.26680643E-05  1.71007086E-05  2.71469507E-05  4.88904334E-05  8.83450460E-05  1.72890854E-04  2.76060775E-04  5.17106343E-04  7.07368599E-04  5.66100003E-04  4.19561751E-04  4.21878998E-04  3.81072139E-04  3.38048907E-04  3.04517137E-04  2.20690024E-04  1.03039216E-04  5.11291328E-05  2.60769884E-05  1.71847860E-05  1.15937019E-05  8.38801705E-06  1.06281763E-05  1.48186446E-05  2.22622136E-05  3.24402160E-05  4.51283219E-05  4.49986304E-05  6.03760370E-05  8.61039637E-05  1.08941934E-04  1.19354684E-04
      7.07661238E-05  5.42169801E-05  4.73027758E-05  3.59666556E-05  2.82392575E-05  2.78042316E-05  3.32068194E-05  6.00877756E-05  9.84867511E-05  1.13750662E-04  1.44189257E-04  2.02063953E-04  2.51248612E-04  2.43745589E-04  2.27201381E-04  2.14775768E-04  2.27254350E-04  2.42559216E-04  2.12175073E-04  1.74198483E-04  1.25408944E-04  8.07048766E-05  4.71507374E-05  2.38349286E-05  1.21161469E-05  7.36849446E-06  5.69836266E-06  5.59240531E-06  7.38497814E-06  1.07139264E-05  1.42561767E-05  1.72570290E-05  2.31468796E-05  4.22879450E-05  6.36517711E-05  1.08884065E-04  1.55796728E-04  2.12454679E-04  2.47251405E-04  2.40685511E-04  3.00809555E-04  4.02069185E-04  6.45884905E-04  9.09200870E-04       0.00127470       0.00196656       0.00184399       0.00255173       0.00245811       0.00229191       0.00227039       0.00166889       0.00129007  7.95989660E-04  3.97449796E-04  1.71230407E-04  9.24411288E-05  4.21766250E-05  2.01698440E-05  1.00093251E-05  6.76142796E-06  5.65136907E-06  5.40926158E-06  5.70063548E-06  6.62098864E-06  7.24957363E-06       1.00000000  1.06093585E-05  1.76084395E-05  2.82307992E-05  4.68722246E-05  8.89258154E-05  1.33228779E-04  2.33041545E-04  3.51343032E-04  5.06326789E-04  5.08523430E-04  3.77268356E-04  2.37048342E-04  2.26610078E-04  2.69556418E-04  2.73928784E-04  2.41700909E-04  1.62263124E-04  7.89064215E-05  3.00165339E-05  1.70402717E-05  8.89016277E-06  7.39158440E-06  6.29611577E-06  7.23289694E-06  9.65774234E-06  1.38479324E-05  2.51564391E-05  3.47133901E-05  3.47811268E-05  4.10105567E-05  4.89443191E-05  7.28667025E-05  7.43951872E-05
      6.60772857E-05  4.88066471E-05  4.60760421E-05  3.35085788E-05  2.96540384E-05  2.65652288E-05  2.64451664E-05  3.90707646E-05  7.25808713E-05  1.04140061E-04  1.41559435E-04  1.79419427E-04  2.25272928E-04  2.26465791E-04  2.35811388E-04  2.31432728E-04  2.27957382E-04  2.07591608E-04  1.97736663E-04  1.47545561E-04  1.14819224E-04  6.79719960E-05  3.71978240E-05  1.93261876E-05  8.48798002E-06  5.49494689E-06  5.01915050E-06  4.81525240E-06  6.08681694E-06  9.16760716E-06  1.32264407E-05  1.56874541E-05  2.10203156E-05  2.99802156E-05  5.10467275E-05  6.41888182E-05  1.05291104E-04  1.35497586E-04  1.81110704E-04  1.87790010E-04  2.00960343E-04  2.58983951E-04  4.31822401E-04  5.84846235E-04  9.28606415E-04       0.00144979       0.00200318       0.00264058       0.00243039       0.00215774       0.00225854       0.00183426       0.00140264  8.36571420E-04  4.60355135E-04  2.07059817E-04  8.52825178E-05  3.56856297E-05  1.60170403E-05  8.74763524E-06  6.23771545E-06  6.10443112E-06  5.43233364E-06  6.21587606E-06  5.38545783E-06  5.79360631E-06  7.92304127E-06  1.43433954E-05  2.69421544E-05  5.47213785E-05  1.26903527E-04  1.85625531E-04  2.15264386E-04  3.21345850E-04  3.95183597E-04  4.66824305E-04       1.00000000       1.00000000       1.00000000  1.23248246E-04  1.69336447E-04  1.83810317E-04  1.48322217E-04  9.23116677E-05  5.07906888E-05  2.41734977E-05  1.13503742E-05  7.07676372E-06  6.14182419E-06  7.24394931E-06  6.79652112E-06  8.49827588E-06  1.07748007E-05  1.61001857E-05  1.98521084E-05  2.19294210E-05  2.33211710E-05  2.72804949E-05  4.06478115E-05  4.08280806E-05
      5.90472991E-05  3.74866795E-05  3.39463732E-05  3.10216274E-05  2.96978706E-05  2.48085707E-05  2.06852910E-05  3.01031541E-05  5.69566400E-05  8.45985778E-05  1.19805161E-04  1.54945584E-04  2.13912960E-04  2.70956196E-04  3.22616985E-04  3.04504042E-04  2.75578117E-04  2.30188035E-04  2.52248040E-04  1.70090668E-04  9.51721304E-05  6.35160250E-05  3.44253430E-05  1.63502264E-05  6.73098905E-06  5.09178790E-06  4.55602337E-06  4.08786976E-06  4.36840310E-06  6.26460436E-06  8.47499706E-06  1.07509087E-05  1.60365395E-05  2.38805093E-05  2.91704404E-05  4.08177351E-05  6.42375206E-05  8.85537593E-05  1.26390904E-04  1.16984104E-04  1.39483809E-04  1.50676910E-04  2.27919610E-04  3.53838740E-04  6.69895159E-04       0.00101744       0.00129087       0.00173776       0.00181279       0.00192605       0.00214403       0.00169554       0.00121170  8.74220277E-04  4.31959750E-04  1.99193368E-04  7.23310028E-05  3.21189291E-05  1.53906312E-05  9.92673085E-06  7.36273432E-06  7.37514347E-06  8.14039504E-06  7.78398498E-06  6.55828217E-06  6.91336891E-06  1.02102431E-05  1.87371752E-05  3.89414090E-05  1.02653132E-04  2.42962153E-04  3.31361041E-04  3.45007710E-04  3.81292542E-04  3.99432174E-04       1.00000000       1.00000000       1.00000000       1.00000000       1.00000000  5.54622020E-05  6.57966666E-05  6.67013768E-05  4.74147512E-05  3.88138491E-05  2.35878077E-05  1.02125079E-05  7.64549299E-06  6.42596246E-06  7.26569043E-06  8.24971085E-06  8.87585962E-06  8.57366831E-06  1.06795099E-05  1.33113548E-05  1.66165034E-05  1.63425708E-05  2.00502946E-05  2.77230817E-05  2.64802729E-05
      5.39721126E-05  3.27850058E-05  2.57175917E-05  2.66266450E-05  2.47337286E-05  2.42606168E-05  2.30229004E-05  3.07711889E-05  5.18412489E-05  7.86296296E-05  1.12413495E-04  1.45518620E-04  2.30341160E-04  2.78581574E-04  3.23757343E-04  3.68665042E-04  3.67958937E-04  2.97384337E-04  2.71957035E-04  1.70375803E-04  8.90527954E-05  5.33617276E-05  2.72663472E-05  1.30314656E-05  7.17085045E-06  4.88770258E-06  4.66864943E-06  4.73068455E-06  4.59458352E-06  5.25343289E-06  7.90961785E-06  9.36885554E-06  1.42166245E-05  2.21652110E-05  2.72658333E-05  3.77707271E-05  4.97464149E-05  6.03408145E-05  7.66071083E-05  7.88855948E-05  8.20709916E-05  8.21917027E-05  1.23163930E-04  2.18050461E-04  4.21465281E-04  6.32963330E-04  7.56297214E-04  9.82102193E-04       0.00130679       0.00157350       0.00179043       0.00158405  8.97028134E-04  6.09429029E-04  4.14940828E-04  2.06272060E-04  8.30280478E-05  3.79271514E-05  2.00369832E-05  1.21312102E-05  9.89497009E-06  1.05639210E-05  1.41798118E-05  1.51065196E-05  1.46883531E-05  1.28003712E-05  1.79540657E-05  3.70836424E-05  9.18029546E-05  2.41267466E-04  5.06267301E-04  6.32236246E-04  6.60450372E-04  6.64497784E-04       1.00000000       1.00000000       1.00000000       1.00000000  1.58643506E-05  1.98872149E-05  1.95930406E-05  2.74911945E-05  3.34235083E-05  3.22229332E-05  3.10535357E-05  2.24286166E-05  1.56330992E-05  1.00762093E-05  8.30241091E-06  8.95943595E-06  8.41964811E-06  7.84347971E-06  7.20447497E-06  7.55045282E-06  1.01510450E-05  1.50736196E-05  1.80476964E-05  2.04364939E-05  2.03068109E-05  2.11590959E-05
      3.09052735E-05  2.35301898E-05  1.93232651E-05  1.81679869E-05  1.86003518E-05  1.94559867E-05  2.22142294E-05  3.30284674E-05  5.19362511E-05  7.25758728E-05  1.16356640E-04  1.76532277E-04  2.68794810E-04  3.21707824E-04  3.71262742E-04  4.54181922E-04  4.24882242E-04  3.78335904E-04  3.26364700E-04  1.91536915E-04  1.01342397E-04  5.66319541E-05  2.97233443E-05  1.45790458E-05  8.39657282E-06  5.31151884E-06  5.46200846E-06  6.00324380E-06  5.50598303E-06  5.42882590E-06  6.31602670E-06  8.32266798E-06  1.40605650E-05  2.04845516E-05  2.85880006E-05  3.67956074E-05  4.44816607E-05  5.41270885E-05  6.45636756E-05  6.01998763E-05  4.73462685E-05  4.70311177E-05  7.25372869E-05  1.32238970E-04  2.10969709E-04  3.73264682E-04  3.58639471E-04  4.92284074E-04  7.34088337E-04       0.00124670       0.00167505       0.00117902  6.33105112E-04  3.88187689E-04  2.92203661E-04  1.78272991E-04  8.61305161E-05  4.71617059E-05  3.07329137E-05  1.87202277E-05  1.58471157E-05  2.14759420E-05  3.03244160E-05  3.46943598E-05  3.56803175E-05  3.02246626E-05  4.69575825E-05  7.96156746E-05  2.12041487E-04  4.90854494E-04  8.12246154E-04       0.00105739       0.00123590       1.00000000       1.00000000       1.00000000       1.00000000       1.00000000  1.14582117E-05  1.24717835E-05  1.20696071E-05  1.39440366E-05  1.93075227E-05  2.15332111E-05  2.35399824E-05  2.76623839E-05  2.68762407E-05  1.78030066E-05  1.20740482E-05  1.21216605E-05  1.25741944E-05  1.02117930E-05  8.37079174E-06  7.78921518E-06  9.10343078E-06  1.68974002E-05  1.82439277E-05  1.75914271E-05  2.02772220E-05  2.13930131E-05
      2.05282035E-05  1.54544963E-05  1.64486846E-05  1.56189635E-05  1.56676720E-05  1.64843158E-05  2.36571699E-05  3.30550793E-05  5.83674773E-05  8.61889733E-05  1.33581460E-04  2.18673243E-04  2.95085173E-04  3.64248369E-04  4.68743887E-04  5.13570538E-04  4.43050987E-04  4.37041612E-04  3.56638738E-04  2.22508796E-04  1.10047513E-04  6.08275425E-05  2.65466919E-05  1.41402707E-05  8.43563903E-06  6.79512741E-06  5.75844533E-06  7.50714025E-06  8.16876563E-06  7.46445666E-06  8.14313130E-06  9.49377409E-06  1.58254188E-05  2.36530159E-05  2.91141550E-05  3.61482380E-05  3.67924440E-05  4.63124824E-05  5.09307914E-05  4.18360060E-05  3.50099225E-05  3.84421437E-05  5.05711359E-05  9.09378869E-05  1.42724533E-04  2.22781647E-04  1.99830884E-04  2.84560801E-04  4.48010086E-04  7.40654042E-04  9.57477081E-04  7.14558759E-04  4.22275891E-04  3.02600242E-04  2.35171115E-04  1.55752874E-04  9.53937066E-05  5.30079451E-05  3.61202013E-05  3.02341772E-05  2.85052902E-05  4.04645070E-05  6.04565175E-05       1.00000000       1.00000000  8.22886504E-05  1.13827758E-04  1.92195686E-04  4.17072879E-04  8.66009931E-04       0.00136802       0.00179924       1.00000000       1.00000000       1.00000000       1.00000000       1.00000000       1.00000000  1.53198525E-05  1.21520097E-05  9.99050826E-06  1.00485765E-05  1.38708374E-05  1.68387080E-05  2.60974127E-05  3.39911891E-05  3.04817891E-05  2.20803151E-05  1.46748658E-05  1.35237626E-05  1.23079986E-05  1.17341669E-05  9.70715441E-06  8.71151549E-06  8.43475209E-06  1.53821202E-05  1.47158547E-05  1.45915576E-05  1.77835071E-05  2.09625747E-05
      1.85194149E-05  1.61212229E-05  1.68494429E-05  1.55891772E-05  1.60695796E-05  1.64238110E-05  2.12565129E-05  3.62435640E-05  5.87170543E-05  1.04888085E-04  1.71058296E-04  2.55652504E-04  3.11880683E-04  4.66712401E-04  6.74546153E-04  7.62196413E-04  6.24628621E-04  5.36122027E-04  3.01808817E-04  2.63549475E-04  1.80957635E-04  1.00232835E-04  4.02185445E-05  1.76392479E-05  1.03793306E-05  9.08612290E-06  9.62384608E-06  9.22070224E-06  8.81365203E-06  8.13044203E-06  1.04158735E-05  1.10444245E-05  1.77282200E-05  2.65178569E-05  2.60494380E-05  3.55106240E-05  3.24710891E-05  4.00346726E-05  3.80856400E-05  3.90048242E-05  3.51521667E-05  3.57934041E-05  4.68017889E-05  8.59322026E-05  1.07767959E-04  1.33044772E-04  1.46830571E-04  1.55002228E-04  2.32473496E-04  3.52705887E-04  4.69170132E-04  4.09343213E-04  3.17788450E-04  2.70954624E-04  2.12616776E-04  1.56963430E-04  9.43620544E-05  5.75735903E-05  4.40748991E-05  4.31844237E-05  4.18140407E-05  5.30504985E-05       1.00000000       1.00000000       1.00000000       1.00000000  2.15994107E-04  4.00777964E-04  6.77956617E-04       0.00120762       0.00185296       1.00000000       1.00000000       1.00000000       1.00000000       1.00000000       1.00000000       1.00000000  2.42619317E-05  1.73786733E-05  1.25497521E-05  1.06578352E-05  1.20599252E-05  1.73134307E-05  2.88317520E-05  3.95625724E-05  3.01970402E-05  2.65278737E-05  1.73665438E-05  1.36714705E-05  1.31635332E-05  1.12335482E-05  9.31971044E-06  9.22881424E-06  9.27312898E-06  1.34242752E-05  1.35686156E-05  1.35045593E-05  1.58792124E-05  1.77085506E-05
      2.01973321E-05  2.03325736E-05  2.07447090E-05  1.57120892E-05  1.48470179E-05  1.65550329E-05  2.66797724E-05  5.44721649E-05  9.69908215E-05  1.37476184E-04  2.25791142E-04  3.64881907E-04  4.84392712E-04  6.82157930E-04  9.71619350E-04       0.00122731  9.49662445E-04  6.99192352E-04  4.81017799E-04  4.31638764E-04  3.11331794E-04  1.65042162E-04  6.26774927E-05  2.67770065E-05  1.60071262E-05  1.42587863E-05  1.51312755E-05  1.34000398E-05  1.05905965E-05  1.08097738E-05  1.22408539E-05  1.57584686E-05  2.13881431E-05  2.54740361E-05  2.51815862E-05  2.92486615E-05  3.03651343E-05  3.54192707E-05  4.12602967E-05  3.31344454E-05  2.82143501E-05  3.27122460E-05  4.80272829E-05  8.12123690E-05  8.65904512E-05  7.95522064E-05  8.53471138E-05  8.86662965E-05  1.30829096E-04  1.98620571E-04  2.42956548E-04  2.08373431E-04  1.64934046E-04  1.81950489E-04  1.69810723E-04  1.70273735E-04  1.10522604E-04  6.43035504E-05  5.11736216E-05  4.73108339E-05  5.64554211E-05  6.73824834E-05       1.00000000       1.00000000       1.00000000       1.00000000  3.03472480E-04  4.23898950E-04  7.00758304E-04       0.00123945       0.00194485       1.00000000       1.00000000       1.00000000       1.00000000       1.00000000       1.00000000       1.00000000  3.73309194E-05  2.20443180E-05  1.55899324E-05  1.16611076E-05  1.46078828E-05  2.14888601E-05  3.15533782E-05  4.25601611E-05  2.85556201E-05  2.77776388E-05  1.93423708E-05  1.46799313E-05  1.20034398E-05  1.20605182E-05  1.07084133E-05  8.52027551E-06  9.62342619E-06  1.19230722E-05  1.52026249E-05  1.58273386E-05  1.35773043E-05  1.38340244E-05
      1.70521962E-05  1.74832186E-05  1.75864618E-05  1.33739694E-05  1.57161584E-05  2.20091606E-05  3.83847742E-05  7.84615016E-05  1.36555536E-04  1.79294831E-04  2.70916016E-04  4.54435391E-04  7.46078124E-04       0.00125286       0.00144807       0.00160928       0.00150074       0.00107154  8.74946226E-04  7.25840285E-04  4.04198188E-04  2.25465213E-04  1.01992677E-04  4.36949667E-05  2.65130911E-05  2.13006388E-05  1.76061076E-05  1.73458120E-05  1.43548696E-05  1.61780689E-05  1.89184551E-05  2.06555026E-05  2.47760181E-05  2.95103722E-05  2.69601296E-05  2.65808589E-05  3.29098111E-05  4.16835870E-05  5.24724850E-05  4.33038388E-05  3.43547103E-05  3.32651959E-05  4.17878660E-05  5.99241050E-05  7.39462973E-05  6.71535173E-05  6.43923538E-05  6.55734787E-05  8.18395887E-05  1.25043917E-04  1.15545234E-04  1.11493282E-04  1.14541175E-04  1.43076770E-04  1.57783637E-04  1.43565834E-04  1.00012025E-04  7.66560988E-05  5.51300400E-05  5.05610878E-05  6.25728280E-05       1.00000000       1.00000000       1.00000000       1.00000000       1.00000000  2.59071821E-04  2.68332631E-04  4.94927284E-04  8.44497777E-04       0.00117042       0.00122480       1.00000000       1.00000000       1.00000000       1.00000000       1.00000000       1.00000000  4.31521185E-05  2.99677680E-05  2.07681333E-05  1.48306838E-05  1.74535276E-05  2.33046723E-05  3.00897547E-05  3.21038057E-05  3.42668262E-05  2.56332198E-05  2.22616742E-05  1.62006261E-05  1.31870096E-05  1.16638468E-05  1.06664680E-05  8.39726838E-06  1.02824803E-05  1.36721692E-05  1.71669835E-05  1.70823020E-05  1.47791112E-05  1.38941541E-05