# File generated by Flopy version 3.9.5 on 11/03/2025 at 10:11:32.
BEGIN options
  auxiliary  Concentration
  PRINT_INPUT
  PRINT_FLOWS
  SAVE_FLOWS
END options

BEGIN dimensions
  MAXBOUND  1
END dimensions

BEGIN period  1
  3 26 51 1.00000000E-03 10
END period  1

