# File generated by Flopy version 3.9.3 on 10/06/2025 at 15:31:26.
BEGIN options
END options

BEGIN griddata
  strt
    CONSTANT       1.00000000
END griddata

