# File generated by Flopy version 3.9.5 on 11/03/2025 at 10:11:36.
BEGIN options
  XT3D_OFF
END options

BEGIN griddata
  diffc
    CONSTANT  1.00000000E-09
  alh
    CONSTANT       1.50000000
  ath1
    CONSTANT       1.50000000
END griddata

