# File generated by Flopy version 3.9.3 on 06/09/2025 at 12:23:01.
BEGIN options
  SAVE_FLOWS
END options

BEGIN sources
  WEL-INJ  AUX  Concentration
END sources

