# File generated by Flopy version 3.9.3 on 10/06/2025 at 15:31:30.
BEGIN options
END options

BEGIN packagedata
  GWFHEAD  FILEIN  ../test.hds
  GWFBUDGET  FILEIN  ../test.cbc
END packagedata

