# File generated by Flopy version 3.9.3 on 06/09/2025 at 12:23:01.
BEGIN options
END options

BEGIN griddata
  strt
    CONSTANT       0.00000000
END griddata

