# File generated by Flopy version 3.9.5 on 11/03/2025 at 10:11:36.
BEGIN options
END options

BEGIN griddata
  strt
    CONSTANT       0.00000000
END griddata

