# File generated by Flopy version 3.9.5 on 11/03/2025 at 10:11:36.
BEGIN options
  BUDGET  FILEOUT  gwt-sim_test.cbc
  CONCENTRATION  FILEOUT  gwt-sim_test.ucn
  CONCENTRATION  PRINT_FORMAT  COLUMNS  10  WIDTH  15  DIGITS  6  GENERAL
END options

BEGIN period  1
  SAVE  CONCENTRATION  ALL
  SAVE  BUDGET  ALL
  PRINT  CONCENTRATION  LAST
  PRINT  BUDGET  LAST
END period  1

