# File generated by Flopy version 3.9.5 on 12/11/2025 at 15:18:19.
BEGIN options
  SAVE_FLOWS
END options

BEGIN sources
  WEL-INJ  AUX  Concentration
END sources

