# File generated by Flopy version 3.9.5 on 12/11/2025 at 15:18:19.
BEGIN options
  FIRST_ORDER_DECAY
END options

BEGIN griddata
  porosity  LAYERED
    INTERNAL  FACTOR  1.0
           0.33141640       0.32851467       0.31925154       0.32900280       0.32294354       0.34832406       0.31617022       0.30851656       0.29726771       0.27743694       0.29439071       0.28415075       0.26319349       0.18447408       0.09014208       0.01650476       0.00000000       0.00000000       0.00000000       0.00000000       0.02663085       0.08141045       0.10841483       0.12017681       0.14507584       0.17079820       0.18761627       0.18233721       0.16474053       0.16236812       0.16242181       0.15152818       0.13184826       0.13085002       0.13240981       0.16367248       0.17623241       0.18750577       0.22782020       0.28159189       0.31140497       0.35264516       0.36771321       0.34914932       0.28987241       0.20080258       0.15887743       0.15446642       0.13065217       0.11722709       0.14385986       0.17387091       0.24120799       0.29414070       0.33112413       0.32768595       0.28479502       0.22752848       0.17084014       0.14900464       0.13827917       0.18620864       0.24990208       0.25948617       0.25337857       0.22435832       0.20923674       0.22660041       0.22239637       0.18785292       0.18076311       0.18886229       0.18865694       0.16790277       0.17114377       0.15379092       0.15832148       0.15003644       0.15194939       0.17425726       0.23438667       0.29941365       0.31455860       0.27319098       0.18496136       0.11185385       0.09490982       0.09681697       0.14360785       0.18443966       0.22922362       0.25536737       0.29458985       0.34306371       0.40000001       0.40000001       0.40000001       0.36465600       0.33999211       0.33761546
           0.32254082       0.29538220       0.26715234       0.26102760       0.24125065       0.26069844       0.27567589       0.28274995       0.30884749       0.26588202       0.29115367       0.28957385       0.28394383       0.21631053       0.12822218       0.02372820  1.28818456E-05       0.00000000       0.00000000       0.00000000       0.01930577       0.06777322       0.09461230       0.13978568       0.16611104       0.19130364       0.20603070       0.21705501       0.19827904       0.17644155       0.13946629       0.13641196       0.12119777       0.12614720       0.13199085       0.15217970       0.16332038       0.20029676       0.22592358       0.28070128       0.31182483       0.36604193       0.37554023       0.35583457       0.29705510       0.21708758       0.16277254       0.14137772       0.13604942       0.14091113       0.14380960       0.17954275       0.21083350       0.26072648       0.29519764       0.28316140       0.25001350       0.18546453       0.13033411       0.09103878       0.08367492       0.12141926       0.18208180       0.18976563       0.17266023       0.17955510       0.18190147       0.22564217       0.20974822       0.20953429       0.21809712       0.21901970       0.21100785       0.20002519       0.21823764       0.18678279       0.17948677       0.14539555       0.17514728       0.19995745       0.26963705       0.35545361       0.38958031       0.34306651       0.24789652       0.17621970       0.15218791       0.12018311       0.16125302       0.23470247       0.26152143       0.29446259       0.32326698       0.39492145       0.40000001       0.40000001       0.40000001       0.39875206       0.36356896       0.36034724
           0.27668437       0.20959549       0.17751287       0.15728275       0.13693129       0.15654966       0.20918456       0.24058154       0.26697314       0.25067744       0.26568219       0.28051803       0.27898952       0.25868794       0.14920875       0.05141773       0.00466485       0.00000000       0.00000000       0.00000000  2.65576149E-04       0.03419770       0.07800498       0.15176716       0.21427479       0.22098899       0.22556436       0.24910004       0.21296246       0.18814731       0.14820306       0.13938911       0.09430721       0.10859292       0.13375388       0.15853886       0.17371100       0.19474460       0.22446251       0.27730677       0.32650489       0.37167430       0.37826386       0.34019724       0.28440753       0.20479542       0.14945519       0.14199522       0.14600897       0.12754253       0.12209322       0.16390474       0.19093335       0.21910964       0.24725100       0.24908674       0.21729559       0.15197429       0.08963862       0.04851791       0.03715037       0.06892006       0.10402573       0.12955953       0.10169137       0.13284317       0.16040789       0.18231937       0.19668373       0.22438958       0.24314557       0.24658343       0.23546788       0.22185639       0.23522809       0.24763335       0.23627956       0.20646869       0.23000215       0.25212166       0.30660775       0.37963000       0.40000001       0.35114551       0.27935192       0.21820031       0.16946661       0.16243984       0.19235016       0.26199082       0.30318865       0.34515402       0.35739484       0.40000001       0.40000001       0.40000001       0.40000001       0.38075963       0.33952203       0.32831407
           0.20079483       0.13115516       0.06446210       0.03385179       0.03633365       0.04860874       0.11206196       0.17771967       0.21814661       0.21576157       0.21176693       0.24001938       0.25172514       0.23857990       0.15139554       0.06498120       0.02919242       0.00000000       0.00000000       0.00000000       0.00869031       0.01969399       0.07679672       0.18880638       0.26129633       0.29006729       0.29118049       0.30024451       0.24988218       0.21221209       0.16995902       0.12792230       0.10246249       0.10144254       0.11153444       0.14682330       0.17324942       0.21745260       0.25524795       0.29940173       0.33732247       0.38484663       0.38350832       0.34896266       0.25750268       0.18480191       0.11536472       0.10635368       0.10991736       0.09562703       0.11210034       0.14388354       0.15363207       0.15589043       0.19012442       0.20435125       0.16166307       0.11417748       0.05146549       0.02044077       0.00149553       0.03976275       0.06367618       0.06287511       0.05692699       0.10097624       0.14214554       0.15966681       0.18605691       0.20893534       0.24180518       0.24298750       0.24225743       0.23874876       0.27224517       0.28051916       0.26942962       0.24830648       0.27883738       0.31764063       0.36989632       0.39939779       0.39558217       0.36272159       0.31899136       0.26600239       0.21037517       0.21126945       0.23124921       0.24741021       0.29424515       0.34032425       0.37753710       0.40000001       0.40000001       0.40000001       0.38543954       0.32830703       0.27710992       0.24599525
           0.11168848       0.04879306       0.00313473       0.00000000       0.00000000       0.00243951       0.05274003       0.11402584       0.15587789       0.15988234       0.15194467       0.19112431       0.19654161       0.19464611       0.14401317       0.07427289       0.03563749       0.00000000       0.00000000       0.00000000       0.01096817       0.02238580       0.07121333       0.18635298       0.26480559       0.30558762       0.33496454       0.32268849       0.26554352       0.22102650       0.17227571       0.14140788       0.13172671       0.11388317       0.10443088       0.12809600       0.17277522       0.21986218       0.30066413       0.35195476       0.38471204       0.39734194       0.35593098       0.32227129       0.24210702       0.17387187       0.09326246       0.09684224       0.09453922       0.09107926       0.11174075       0.11347613       0.10757495       0.11818905       0.15418893       0.18125501       0.15000232       0.09850434       0.05499896       0.03378553       0.00183547       0.04073135       0.06329922       0.04213357       0.03562672       0.07684734       0.12695527       0.16922522       0.19739074       0.22131327       0.26418024       0.26232347       0.26388228       0.27657643       0.28373626       0.28777105       0.30696857       0.28020746       0.28256989       0.31233999       0.36913472       0.40000004       0.39637002       0.38332233       0.35761341       0.32458836       0.28043786       0.26976660       0.25416943       0.25360766       0.28383097       0.33635157       0.39275354       0.40000001       0.40000001       0.38719258       0.35784274       0.27089712       0.20570739       0.13702564
           0.02254258       0.00000000       0.00000000       0.00000000       0.00000000  3.19239422E-04       0.03878557       0.06921528       0.10168206       0.09375613       0.07558681       0.10537482       0.15079178       0.18504956       0.12664635       0.06038607       0.01933418  2.45969946E-04       0.00458732       0.02228527       0.01570727       0.01164392       0.06372796       0.15229936       0.23067458       0.30474773       0.33523488       0.32000211       0.25989705       0.20869924       0.17615719       0.15111887       0.13393629       0.11682514       0.10626704       0.13551964       0.17134257       0.24205689       0.34221226       0.36721128       0.38654524       0.39014354       0.33769551       0.28226215       0.20840502       0.15293664       0.12315386       0.10149945       0.09457935       0.11153464       0.13275588       0.10969814       0.08329437       0.07820322       0.11831019       0.14599353       0.09508482       0.05893600       0.04742166       0.04532006       0.02113686       0.03388502       0.06996840       0.07095386       0.07042644       0.09032381       0.12700649       0.15683660       0.18580307       0.22362421       0.25794908       0.26491126       0.26291436       0.28630486       0.30519822       0.29872862       0.27293387       0.29456833       0.31760961       0.32324630       0.37167999       0.39380854       0.39069599       0.38630405       0.35529131       0.34171414       0.30791497       0.28219622       0.24460250       0.25181162       0.29393613       0.35647613       0.39036959       0.40000001       0.38406831       0.34964821       0.30476224       0.22331139       0.13866797       0.09632228
           0.00000000       0.00000000       0.00000000       0.00000000       0.00000000       0.01287120       0.03116958       0.05492932       0.04512331       0.04593157       0.03099175       0.04894828       0.12510745       0.15166007       0.13350885       0.08043081       0.05945578       0.03879600       0.03443984       0.06070605       0.03874307       0.01428281       0.02946754       0.11701985       0.19452298       0.24746795       0.29347461       0.27593106       0.21965323       0.17582268       0.14430179       0.13924725       0.13460957       0.12289390       0.11046803       0.11984497       0.17879356       0.26127988       0.33577102       0.37169921       0.37495682       0.36304182       0.32823145       0.28320155       0.21599197       0.18602042       0.15726337       0.12554669       0.12352508       0.12511134       0.14988282       0.11491623       0.10006326       0.08321091       0.10328967       0.13848042       0.09217519       0.07376861       0.06685617       0.07703596       0.06862403       0.08264173       0.08524856       0.10646152       0.12597500       0.14029188       0.13648880       0.16040434       0.16443580       0.19998325       0.23055358       0.25309595       0.26201910       0.26306838       0.30423224       0.29651302       0.27887651       0.28709272       0.31246746       0.33544493       0.34638506       0.38696933       0.39651436       0.38204846       0.36025673       0.34275585       0.30295965       0.26432285       0.24497649       0.25867531       0.30732468       0.35965163       0.37373465       0.36510521       0.33978766       0.30609167       0.24558958       0.17073061       0.09593764       0.07637936
           0.00000000       0.00000000       0.00000000       0.00000000       0.00000000       0.06845339       0.09444951       0.05552752       0.03820562       0.03501302       0.02013864       0.01240627       0.06468258       0.13608050       0.10921386       0.09591860       0.07894135       0.05840889       0.06258970       0.06960120       0.03631062       0.03215380       0.05917912       0.10575067       0.16111322       0.19009569       0.23369625       0.22379549       0.18291652       0.16586296       0.13692635       0.13065962       0.14957994       0.14725423       0.11632647       0.12294994       0.17666383       0.25319007       0.32695591       0.36404878       0.34565207       0.30432856       0.27584022       0.23621297       0.20419762       0.14433290       0.13766746       0.14232266       0.14495905       0.16262214       0.15752976       0.10465512       0.09657488       0.09148847       0.10109878       0.13196105       0.11004214       0.09766320       0.10870867       0.12045743       0.09747039       0.10637276       0.14600185       0.17774794       0.21404159       0.21081617       0.17456460       0.16269213       0.15149172       0.17730074       0.20495309       0.22017096       0.25450751       0.26926941       0.28705579       0.27782547       0.27809557       0.26500520       0.26331508       0.29003561       0.32347164       0.36055279       0.37726086       0.35923132       0.35094088       0.35454118       0.30179238       0.26751256       0.22691077       0.24379227       0.26774570       0.30290574       0.31114703       0.30594450       0.28711849       0.24575150       0.20569932       0.15062079       0.11241878       0.19373454
           0.00000000       0.00000000       0.00000000       0.00000000       0.01346327       0.07929318       0.10672190       0.11134235       0.07784139       0.05043968       0.00102082       0.00000000       0.04280590       0.13102402       0.13171616       0.13334268       0.11564162       0.08937375       0.08360376       0.05784142       0.02007135       0.02445876       0.04888933       0.10500202       0.13743259       0.16702740       0.18713038       0.16113098       0.14985277       0.14174946       0.12742524       0.14024219       0.16048835       0.18444981       0.14109747       0.15303352       0.15363733       0.20894907       0.27851626       0.31490818       0.30521962       0.25300056       0.25200123       0.21550576       0.17975685       0.14304951       0.11023127       0.12695184       0.14186306       0.17163643       0.15897331       0.10730451       0.07984518       0.08146851       0.10195982       0.14365353       0.14882474       0.15713447       0.17253819       0.17973591       0.15363356       0.15423471       0.19573656       0.23353970       0.25052270       0.26501814       0.21345095       0.17143700       0.15369126       0.14904988       0.16886632       0.19732386       0.23730308       0.25445729       0.26770008       0.23413979       0.24277470       0.22223552       0.21828227       0.24256274       0.28500915       0.29970855       0.32062307       0.31324664       0.31331956       0.32706454       0.27521884       0.25739700       0.23872328       0.22685799       0.22728644       0.24011555       0.24425563       0.23139268       0.22644602       0.21051356       0.19137353       0.17445509       0.16179419       0.19373454
           0.00000000       0.00000000       0.00000000       0.01044058       0.07507203       0.16297272       0.17941858       0.17594169       0.12906130       0.06807034       0.00545934       0.00130633       0.03836288       0.09557754       0.11577369       0.14003494       0.13971470       0.10082952       0.08444642       0.05453248       0.02535427       0.02949391       0.05250896       0.10770488       0.15424661       0.16124153       0.16776435       0.13382468       0.11930185       0.14688425       0.15042473       0.16701896       0.19061363       0.20216618       0.20583418       0.19227803       0.17359041       0.18238185       0.22991987       0.26489097       0.23240305       0.20062065       0.18974702       0.18082789       0.15207082       0.11287409       0.08429047       0.09843354       0.11557432       0.16743970       0.18741956       0.13251530       0.10338571       0.09077575       0.09998497       0.15450427       0.18700734       0.21379451       0.22145289       0.19878428       0.19422989       0.21601474       0.25418121       0.28955394       0.30463690       0.27096140       0.20715611       0.16690843       0.14099431       0.13140982       0.13255772       0.15205707       0.17550856       0.23711376       0.24481504       0.22438583       0.21098295       0.20056693       0.20094575       0.20944528       0.23749265       0.29040405       0.30562255       0.31100807       0.31200227       0.27795064       0.26215583       0.22688529       0.19251534       0.17572089       0.15918349       0.16079549       0.16743079       0.14896426       0.14707105       0.14646825       0.17061305       0.20089227       0.22623377       0.19373454
           0.00000000       0.00000000       0.00000000       0.05405030       0.14794889       0.22864088       0.25935090       0.26214927       0.21092378       0.12884513       0.06068145       0.05383207       0.06925139       0.09683949       0.13372543       0.15024258       0.14809801       0.13502569       0.09457168       0.05711814       0.07031190       0.07975379       0.09125888       0.12986824       0.15181792       0.14348380       0.11849967       0.11216587       0.10180036       0.11023122       0.17924139       0.22860743       0.24895978       0.26712775       0.27375671       0.24081424       0.20910215       0.18147586       0.17681268       0.20115887       0.21062849       0.20236254       0.16385774       0.15056457       0.12710254       0.09257305       0.06961501       0.06956853       0.09330069       0.13182344       0.14608876       0.13603295       0.12680145       0.11686327       0.14351252       0.19180684       0.24653588       0.26618350       0.23874778       0.21525812       0.22949815       0.25024325       0.28388906       0.32014951       0.34548080       0.29911900       0.21677804       0.14228712       0.11950694       0.10219124       0.09990499       0.12020531       0.12973107       0.17628179       0.20773691       0.19932403       0.17354690       0.13904846       0.15196520       0.19369212       0.23504481       0.27760917       0.30038741       0.30421424       0.29744008       0.27222264       0.23600347       0.20982783       0.15127233       0.11303581       0.08398075       0.06447653       0.07779081       0.06283786       0.06698719       0.08010731       0.11739837       0.17244568       0.21671565       0.18458258
           0.00000000       0.02012019       0.07813880       0.12680331       0.21272585       0.27533218       0.30694166       0.28928486       0.24980295       0.15725772       0.10144701       0.11636539       0.11899439       0.14604190       0.16407837       0.18565214       0.16544822       0.15039234       0.11753871       0.07355522       0.09640586       0.09759003       0.13425396       0.14262457       0.12566406       0.10658232       0.09507392       0.07101769       0.07429421       0.11571590       0.19627300       0.26313800       0.27853614       0.29670924       0.29950735       0.27632862       0.24526417       0.20941652       0.19803222       0.19807996       0.21958269       0.21424054       0.15527578       0.15674303       0.14896733       0.10353563       0.05899671       0.04633874       0.09325086       0.10907356       0.12702984       0.13903986       0.14665778       0.15485375       0.18753263       0.22263953       0.26029220       0.26946869       0.24021849       0.24129754       0.26523960       0.31746691       0.32472327       0.32988191       0.34216565       0.30207121       0.22626486       0.14033061       0.07748424       0.02695944       0.04037794       0.07331144       0.13164513       0.15634523       0.16568434       0.15373139       0.09567756       0.08333295       0.11588982       0.17748049       0.20099661       0.25432184       0.28549072       0.27409947       0.26672772       0.24679959       0.21547891       0.18154530       0.13352220       0.11679161       0.07145242       0.03942398       0.03338167       0.03078336       0.03138808       0.04079011       0.08313718       0.14595217       0.18383451       0.19627021
           0.02522350       0.10186040       0.16159981       0.20223674       0.22294448       0.27301615       0.28330305       0.27396923       0.23761883       0.18281719       0.14029546       0.16043927       0.17339537       0.19401392       0.17497754       0.19043547       0.16637798       0.14441317       0.12784827       0.12038212       0.13347340       0.16080184       0.18773101       0.17529078       0.15739428       0.13101472       0.12728314       0.10907358       0.09690085       0.11221320       0.18907292       0.24980664       0.29297549       0.31818342       0.30252501       0.30403244       0.26881394       0.23485374       0.23479709       0.22817509       0.23988339       0.22250296       0.17642130       0.17434342       0.17241812       0.14126988       0.11086053       0.11317551       0.13054082       0.13012624       0.15197913       0.16872509       0.19569848       0.18954144       0.22518091       0.27649367       0.29701754       0.28978425       0.24499393       0.25193936       0.30053097       0.31632727       0.34407276       0.31523657       0.28544143       0.21486276       0.17070803       0.10200275       0.05095544       0.01649524       0.04983833       0.08104309       0.09988714       0.11558726       0.11728876       0.10097344       0.05345949       0.04590543       0.08943835       0.14687216       0.17069784       0.19676320       0.23431359       0.23380929       0.24875332       0.24096115       0.22916687       0.19215906       0.15349521       0.14068961       0.11859186       0.05202673       0.02989735       0.01882123       0.01084428       0.02961938       0.06698147       0.11653323       0.16811723       0.19206697
           0.09082497       0.16749650       0.23096564       0.24250370       0.25907007       0.28876436       0.25183168       0.21119078       0.19194683       0.17959699       0.16621874       0.16004875       0.21296751       0.23023467       0.20597804       0.16193423       0.14518520       0.13434267       0.12349910       0.12935703       0.16204995       0.19934860       0.24335189       0.21573527       0.18180537       0.17832731       0.16072260       0.14669394       0.16271366       0.15785472       0.18187286       0.22059143       0.28233156       0.31387681       0.33645844       0.33815798       0.31417024       0.31755304       0.29772270       0.26507795       0.26236582       0.27631491       0.25143823       0.24986073       0.23755836       0.19238515       0.17103286       0.18385212       0.16191725       0.18821551       0.18690030       0.18906868       0.19727814       0.19167300       0.24060118       0.28442830       0.31157991       0.30367747       0.26907253       0.25240538       0.30138806       0.31611481       0.30539924       0.27143398       0.24110036       0.17608386       0.13092063       0.07972637       0.04926836       0.04010724       0.05011420       0.08176395       0.08879523       0.07218449       0.07328510       0.07037679       0.05031335       0.01263799       0.05608805       0.10671775       0.14427677       0.15864649       0.19983414       0.22451313       0.23987813       0.24461038       0.24839525       0.19957021       0.16613550       0.17050028       0.14904684       0.07050579       0.03246626  1.78951319E-04       0.00000000       0.00327163       0.04923005       0.11812356       0.16596714       0.18629411
           0.14319107       0.21982709       0.28163981       0.28485438       0.27937457       0.28893238       0.24608621       0.21934037       0.21134970       0.22475146       0.20865548       0.17815208       0.22021270       0.23397997       0.21537454       0.16148171       0.10353116       0.09088598       0.10834183       0.13587812       0.16578016       0.25192377       0.27100027       0.26019898       0.24082343       0.23225324       0.21755542       0.20172286       0.20442645       0.21638110       0.20588075       0.25051558       0.27418470       0.31522781       0.38253501       0.39826879       0.38031843       0.37793013       0.35140797       0.32852015       0.32204315       0.31568152       0.31189921       0.30462930       0.29124358       0.22824055       0.19333053       0.18314397       0.19351368       0.22745974       0.22623226       0.22072138       0.20406638       0.19512278       0.24056868       0.27208012       0.28510323       0.29156727       0.28235838       0.24329042       0.24607067       0.24936084       0.25832516       0.24973822       0.23452461       0.19829170       0.14598535       0.13292089       0.12202296       0.10307337       0.10746676       0.07073058       0.07675159       0.04968100       0.06464144       0.06817731       0.02781844       0.01784299       0.02405326       0.04119478       0.06653269       0.10587516       0.16829136       0.21116516       0.23263435       0.25258222       0.25080281       0.23508000       0.18408871       0.17826612       0.13502677       0.05930716       0.02130186       0.00000000       0.00000000  9.93638532E-04       0.05707843       0.11432538       0.15785500       0.17071345
           0.19203807       0.23263271       0.30159149       0.31345341       0.29039156       0.27795005       0.24091144       0.20795465       0.23059666       0.26364562       0.27417871       0.24750306       0.26071855       0.26173064       0.21743956       0.12819128       0.05941125       0.02449249       0.07693651       0.11338812       0.16847807       0.25046641       0.26208448       0.28035852       0.26875970       0.26158771       0.25167745       0.23827638       0.24356580       0.26956916       0.26711878       0.28316811       0.28580135       0.33545849       0.38213688       0.40000001       0.40000001       0.40000001       0.40000001       0.37856048       0.38725951       0.38167593       0.36756787       0.33339521       0.32154474       0.28273037       0.21721190       0.18243000       0.16883121       0.19588029       0.23182122       0.24995227       0.22719511       0.20170203       0.24520814       0.28900048       0.29338056       0.28837368       0.24774233       0.21691585       0.17872833       0.19610876       0.22260500       0.25835052       0.22827117       0.20860802       0.17173651       0.16895829       0.15547575       0.13021718       0.09939273       0.07618163       0.04742996       0.04192545       0.05297855       0.08749511       0.05857236       0.04100833       0.00983748       0.00605244       0.03104294       0.08407622       0.12346872       0.17386255       0.19703265       0.22819172       0.22757307       0.21187675       0.19282565       0.17771263       0.12908268       0.06532917       0.01904500       0.00000000       0.00000000       0.02948095       0.09225949       0.13405062       0.16281216       0.17213832
           0.17897692       0.21892005       0.29097515       0.31559533       0.31279609       0.30343807       0.25970933       0.23820147       0.26277024       0.30649921       0.31543681       0.27891970       0.27861387       0.28930911       0.24182136       0.15359692       0.05031544       0.02756358       0.06713406       0.12614027       0.19011679       0.26321557       0.27222613       0.28444231       0.28210154       0.25725457       0.25870013       0.25824577       0.26038647       0.27470636       0.28115800       0.28121990       0.30582717       0.33269164       0.36373648       0.40000001       0.40000001       0.40000001       0.40000001       0.40000001       0.40000001       0.40000001       0.39963296       0.37632427       0.34947860       0.30506006       0.24448085       0.18717371       0.15344380       0.14483857       0.16461627       0.19046566       0.18447681       0.18767348       0.23765667       0.26045948       0.24611983       0.25007758       0.21968472       0.17764185       0.15518481       0.14685026       0.18151982       0.21347737       0.23480625       0.25228345       0.23389594       0.23621504       0.21825616       0.16639368       0.11853974       0.08138266       0.03554528       0.02339654       0.06552278       0.11087702       0.09404717       0.06299783       0.01409030       0.00145229       0.00165656       0.04781463       0.09112471       0.12647448       0.15291257       0.18811683       0.17802876       0.18430358       0.19218192       0.17580947       0.12977596       0.08556726       0.05074618       0.01296948       0.03833772       0.08495659       0.14581668       0.18223751       0.18571587       0.18210915