# File generated by Flopy version 3.9.3 on 09/16/2025 at 10:14:01.
BEGIN options
END options

BEGIN griddata
  strt
    CONSTANT       0.00000000
END griddata

