# File generated by Flopy version 3.9.3 on 10/06/2025 at 15:31:30.
BEGIN options
  XORIGIN       0.00000000
  YORIGIN       0.00000000
END options

BEGIN dimensions
  NLAY  6
  NROW  50
  NCOL  100
END dimensions

BEGIN griddata
  delr
    INTERNAL  FACTOR  1.0
         1.50000000       1.50000000       1.50000000       1.50000000       1.50000000       1.50000000       1.50000000       1.50000000       1.50000000       1.50000000       1.50000000       1.50000000       1.50000000       1.50000000       1.50000000       1.50000000       1.50000000       1.50000000       1.50000000       1.50000000       1.50000000       1.50000000       1.50000000       1.50000000       1.50000000       1.50000000       1.50000000       1.50000000       1.50000000       1.50000000       1.50000000       1.50000000       1.50000000       1.50000000       1.50000000       1.50000000       1.50000000       1.50000000       1.50000000       1.50000000       1.50000000       1.50000000       1.50000000       1.50000000       1.50000000       1.50000000       1.50000000       1.50000000       1.50000000       1.50000000       1.50000000       1.50000000       1.50000000       1.50000000       1.50000000       1.50000000       1.50000000       1.50000000       1.50000000       1.50000000       1.50000000       1.50000000       1.50000000       1.50000000       1.50000000       1.50000000       1.50000000       1.50000000       1.50000000       1.50000000       1.50000000       1.50000000       1.50000000       1.50000000       1.50000000       1.50000000       1.50000000       1.50000000       1.50000000       1.50000000       1.50000000       1.50000000       1.50000000       1.50000000       1.50000000       1.50000000       1.50000000       1.50000000       1.50000000       1.50000000       1.50000000       1.50000000       1.50000000       1.50000000       1.50000000       1.50000000       1.50000000       1.50000000       1.50000000       1.50000000
  delc
    INTERNAL  FACTOR  1.0
         1.50000000       1.50000000       1.50000000       1.50000000       1.50000000       1.50000000       1.50000000       1.50000000       1.50000000       1.50000000       1.50000000       1.50000000       1.50000000       1.50000000       1.50000000       1.50000000       1.50000000       1.50000000       1.50000000       1.50000000       1.50000000       1.50000000       1.50000000       1.50000000       1.50000000       1.50000000       1.50000000       1.50000000       1.50000000       1.50000000       1.50000000       1.50000000       1.50000000       1.50000000       1.50000000       1.50000000       1.50000000       1.50000000       1.50000000       1.50000000       1.50000000       1.50000000       1.50000000       1.50000000       1.50000000       1.50000000       1.50000000       1.50000000       1.50000000       1.50000000
  top
    INTERNAL  FACTOR  1.0
        -7.50000000      -7.50000000      -7.50000000      -7.50000000      -7.50000000      -7.50000000      -7.50000000      -7.50000000      -7.50000000      -7.50000000      -7.50000000      -7.50000000      -7.50000000      -7.50000000      -7.50000000      -7.50000000      -7.50000000      -7.50000000      -7.50000000      -7.50000000      -7.50000000      -7.50000000      -7.50000000      -7.50000000      -7.50000000      -7.50000000      -7.50000000      -7.50000000      -7.50000000      -7.50000000      -7.50000000      -7.50000000      -7.50000000      -7.50000000      -7.50000000      -7.50000000      -7.50000000      -7.50000000      -7.50000000      -7.50000000      -7.50000000      -7.50000000      -7.50000000      -7.50000000      -7.50000000      -7.50000000      -7.50000000      -7.50000000      -7.50000000      -7.50000000      -7.50000000      -7.50000000      -7.50000000      -7.50000000      -7.50000000      -7.50000000      -7.50000000      -7.50000000      -7.50000000      -7.50000000      -7.50000000      -7.50000000      -7.50000000      -7.50000000      -7.50000000      -7.50000000      -7.50000000      -7.50000000      -7.50000000      -7.50000000      -7.50000000      -7.50000000      -7.50000000      -7.50000000      -7.50000000      -7.50000000      -7.50000000      -7.50000000      -7.50000000      -7.50000000      -7.50000000      -7.50000000      -7.50000000      -7.50000000      -7.50000000      -7.50000000      -7.50000000      -7.50000000      -7.50000000      -7.50000000      -7.50000000      -7.50000000      -7.50000000      -7.50000000      -7.50000000      -7.50000000      -7.50000000      -7.50000000      -7.50000000      -7.50000000
        -7.50000000      -7.50000000      -7.50000000      -7.50000000      -7.50000000      -7.50000000      -7.50000000      -7.50000000      -7.50000000      -7.50000000      -7.50000000      -7.50000000      -7.50000000      -7.50000000      -7.50000000      -7.50000000      -7.50000000      -7.50000000      -7.50000000      -7.50000000      -7.50000000      -7.50000000      -7.50000000      -7.50000000      -7.50000000      -7.50000000      -7.50000000      -7.50000000      -7.50000000      -7.50000000      -7.50000000      -7.50000000      -7.50000000      -7.50000000      -7.50000000      -7.50000000      -7.50000000      -7.50000000      -7.50000000      -7.50000000      -7.50000000      -7.50000000      -7.50000000      -7.50000000      -7.50000000      -7.50000000      -7.50000000      -7.50000000      -7.50000000      -7.50000000      -7.50000000      -7.50000000      -7.50000000      -7.50000000      -7.50000000      -7.50000000      -7.50000000      -7.50000000      -7.50000000      -7.50000000      -7.50000000      -7.50000000      -7.50000000      -7.50000000      -7.50000000      -7.50000000      -7.50000000      -7.50000000      -7.50000000      -7.50000000      -7.50000000      -7.50000000      -7.50000000      -7.50000000      -7.50000000      -7.50000000      -7.50000000      -7.50000000      -7.50000000      -7.50000000      -7.50000000      -7.50000000      -7.50000000      -7.50000000      -7.50000000      -7.50000000      -7.50000000      -7.50000000      -7.50000000      -7.50000000      -7.50000000      -7.50000000      -7.50000000      -7.50000000      -7.50000000      -7.50000000      -7.50000000      -7.50000000      -7.50000000      -7.50000000
        -7.50000000      -7.50000000      -7.50000000      -7.50000000      -7.50000000      -7.50000000      -7.50000000      -7.50000000      -7.50000000      -7.50000000      -7.50000000      -7.50000000      -7.50000000      -7.50000000      -7.50000000      -7.50000000      -7.50000000      -7.50000000      -7.50000000      -7.50000000      -7.50000000      -7.50000000      -7.50000000      -7.50000000      -7.50000000      -7.50000000      -7.50000000      -7.50000000      -7.50000000      -7.50000000      -7.50000000      -7.50000000      -7.50000000      -7.50000000      -7.50000000      -7.50000000      -7.50000000      -7.50000000      -7.50000000      -7.50000000      -7.50000000      -7.50000000      -7.50000000      -7.50000000      -7.50000000      -7.50000000      -7.50000000      -7.50000000      -7.50000000      -7.50000000      -7.50000000      -7.50000000      -7.50000000      -7.50000000      -7.50000000      -7.50000000      -7.50000000      -7.50000000      -7.50000000      -7.50000000      -7.50000000      -7.50000000      -7.50000000      -7.50000000      -7.50000000      -7.50000000      -7.50000000      -7.50000000      -7.50000000      -7.50000000      -7.50000000      -7.50000000      -7.50000000      -7.50000000      -7.50000000      -7.50000000      -7.50000000      -7.50000000      -7.50000000      -7.50000000      -7.50000000      -7.50000000      -7.50000000      -7.50000000      -7.50000000      -7.50000000      -7.50000000      -7.50000000      -7.50000000      -7.50000000      -7.50000000      -7.50000000      -7.50000000      -7.50000000      -7.50000000      -7.50000000      -7.50000000      -7.50000000      -7.50000000      -7.50000000
        -7.50000000      -7.50000000      -7.50000000      -7.50000000      -7.50000000      -7.50000000      -7.50000000      -7.50000000      -7.50000000      -7.50000000      -7.50000000      -7.50000000      -7.50000000      -7.50000000      -7.50000000      -7.50000000      -7.50000000      -7.50000000      -7.50000000      -7.50000000      -7.50000000      -7.50000000      -7.50000000      -7.50000000      -7.50000000      -7.50000000      -7.50000000      -7.50000000      -7.50000000      -7.50000000      -7.50000000      -7.50000000      -7.50000000      -7.50000000      -7.50000000      -7.50000000      -7.50000000      -7.50000000      -7.50000000      -7.50000000      -7.50000000      -7.50000000      -7.50000000      -7.50000000      -7.50000000      -7.50000000      -7.50000000      -7.50000000      -7.50000000      -7.50000000      -7.50000000      -7.50000000      -7.50000000      -7.50000000      -7.50000000      -7.50000000      -7.50000000      -7.50000000      -7.50000000      -7.50000000      -7.50000000      -7.50000000      -7.50000000      -7.50000000      -7.50000000      -7.50000000      -7.50000000      -7.50000000      -7.50000000      -7.50000000      -7.50000000      -7.50000000      -7.50000000      -7.50000000      -7.50000000      -7.50000000      -7.50000000      -7.50000000      -7.50000000      -7.50000000      -7.50000000      -7.50000000      -7.50000000      -7.50000000      -7.50000000      -7.50000000      -7.50000000      -7.50000000      -7.50000000      -7.50000000      -7.50000000      -7.50000000      -7.50000000      -7.50000000      -7.50000000      -7.50000000      -7.50000000      -7.50000000      -7.50000000      -7.50000000
        -7.50000000      -7.50000000      -7.50000000      -7.50000000      -7.50000000      -7.50000000      -7.50000000      -7.50000000      -7.50000000      -7.50000000      -7.50000000      -7.50000000      -7.50000000      -7.50000000      -7.50000000      -7.50000000      -7.50000000      -7.50000000      -7.50000000      -7.50000000      -7.50000000      -7.50000000      -7.50000000      -7.50000000      -7.50000000      -7.50000000      -7.50000000      -7.50000000      -7.50000000      -7.50000000      -7.50000000      -7.50000000      -7.50000000      -7.50000000      -7.50000000      -7.50000000      -7.50000000      -7.50000000      -7.50000000      -7.50000000      -7.50000000      -7.50000000      -7.50000000      -7.50000000      -7.50000000      -7.50000000      -7.50000000      -7.50000000      -7.50000000      -7.50000000      -7.50000000      -7.50000000      -7.50000000      -7.50000000      -7.50000000      -7.50000000      -7.50000000      -7.50000000      -7.50000000      -7.50000000      -7.50000000      -7.50000000      -7.50000000      -7.50000000      -7.50000000      -7.50000000      -7.50000000      -7.50000000      -7.50000000      -7.50000000      -7.50000000      -7.50000000      -7.50000000      -7.50000000      -7.50000000      -7.50000000      -7.50000000      -7.50000000      -7.50000000      -7.50000000      -7.50000000      -7.50000000      -7.50000000      -7.50000000      -7.50000000      -7.50000000      -7.50000000      -7.50000000      -7.50000000      -7.50000000      -7.50000000      -7.50000000      -7.50000000      -7.50000000      -7.50000000      -7.50000000      -7.50000000      -7.50000000      -7.50000000      -7.50000000
        -7.50000000      -7.50000000      -7.50000000      -7.50000000      -7.50000000      -7.50000000      -7.50000000      -7.50000000      -7.50000000      -7.50000000      -7.50000000      -7.50000000      -7.50000000      -7.50000000      -7.50000000      -7.50000000      -7.50000000      -7.50000000      -7.50000000      -7.50000000      -7.50000000      -7.50000000      -7.50000000      -7.50000000      -7.50000000      -7.50000000      -7.50000000      -7.50000000      -7.50000000      -7.50000000      -7.50000000      -7.50000000      -7.50000000      -7.50000000      -7.50000000      -7.50000000      -7.50000000      -7.50000000      -7.50000000      -7.50000000      -7.50000000      -7.50000000      -7.50000000      -7.50000000      -7.50000000      -7.50000000      -7.50000000      -7.50000000      -7.50000000      -7.50000000      -7.50000000      -7.50000000      -7.50000000      -7.50000000      -7.50000000      -7.50000000      -7.50000000      -7.50000000      -7.50000000      -7.50000000      -7.50000000      -7.50000000      -7.50000000      -7.50000000      -7.50000000      -7.50000000      -7.50000000      -7.50000000      -7.50000000      -7.50000000      -7.50000000      -7.50000000      -7.50000000      -7.50000000      -7.50000000      -7.50000000      -7.50000000      -7.50000000      -7.50000000      -7.50000000      -7.50000000      -7.50000000      -7.50000000      -7.50000000      -7.50000000      -7.50000000      -7.50000000      -7.50000000      -7.50000000      -7.50000000      -7.50000000      -7.50000000      -7.50000000      -7.50000000      -7.50000000      -7.50000000      -7.50000000      -7.50000000      -7.50000000      -7.50000000
        -7.50000000      -7.50000000      -7.50000000      -7.50000000      -7.50000000      -7.50000000      -7.50000000      -7.50000000      -7.50000000      -7.50000000      -7.50000000      -7.50000000      -7.50000000      -7.50000000      -7.50000000      -7.50000000      -7.50000000      -7.50000000      -7.50000000      -7.50000000      -7.50000000      -7.50000000      -7.50000000      -7.50000000      -7.50000000      -7.50000000      -7.50000000      -7.50000000      -7.50000000      -7.50000000      -7.50000000      -7.50000000      -7.50000000      -7.50000000      -7.50000000      -7.50000000      -7.50000000      -7.50000000      -7.50000000      -7.50000000      -7.50000000      -7.50000000      -7.50000000      -7.50000000      -7.50000000      -7.50000000      -7.50000000      -7.50000000      -7.50000000      -7.50000000      -7.50000000      -7.50000000      -7.50000000      -7.50000000      -7.50000000      -7.50000000      -7.50000000      -7.50000000      -7.50000000      -7.50000000      -7.50000000      -7.50000000      -7.50000000      -7.50000000      -7.50000000      -7.50000000      -7.50000000      -7.50000000      -7.50000000      -7.50000000      -7.50000000      -7.50000000      -7.50000000      -7.50000000      -7.50000000      -7.50000000      -7.50000000      -7.50000000      -7.50000000      -7.50000000      -7.50000000      -7.50000000      -7.50000000      -7.50000000      -7.50000000      -7.50000000      -7.50000000      -7.50000000      -7.50000000      -7.50000000      -7.50000000      -7.50000000      -7.50000000      -7.50000000      -7.50000000      -7.50000000      -7.50000000      -7.50000000      -7.50000000      -7.50000000
        -7.50000000      -7.50000000      -7.50000000      -7.50000000      -7.50000000      -7.50000000      -7.50000000      -7.50000000      -7.50000000      -7.50000000      -7.50000000      -7.50000000      -7.50000000      -7.50000000      -7.50000000      -7.50000000      -7.50000000      -7.50000000      -7.50000000      -7.50000000      -7.50000000      -7.50000000      -7.50000000      -7.50000000      -7.50000000      -7.50000000      -7.50000000      -7.50000000      -7.50000000      -7.50000000      -7.50000000      -7.50000000      -7.50000000      -7.50000000      -7.50000000      -7.50000000      -7.50000000      -7.50000000      -7.50000000      -7.50000000      -7.50000000      -7.50000000      -7.50000000      -7.50000000      -7.50000000      -7.50000000      -7.50000000      -7.50000000      -7.50000000      -7.50000000      -7.50000000      -7.50000000      -7.50000000      -7.50000000      -7.50000000      -7.50000000      -7.50000000      -7.50000000      -7.50000000      -7.50000000      -7.50000000      -7.50000000      -7.50000000      -7.50000000      -7.50000000      -7.50000000      -7.50000000      -7.50000000      -7.50000000      -7.50000000      -7.50000000      -7.50000000      -7.50000000      -7.50000000      -7.50000000      -7.50000000      -7.50000000      -7.50000000      -7.50000000      -7.50000000      -7.50000000      -7.50000000      -7.50000000      -7.50000000      -7.50000000      -7.50000000      -7.50000000      -7.50000000      -7.50000000      -7.50000000      -7.50000000      -7.50000000      -7.50000000      -7.50000000      -7.50000000      -7.50000000      -7.50000000      -7.50000000      -7.50000000      -7.50000000
        -7.50000000      -7.50000000      -7.50000000      -7.50000000      -7.50000000      -7.50000000      -7.50000000      -7.50000000      -7.50000000      -7.50000000      -7.50000000      -7.50000000      -7.50000000      -7.50000000      -7.50000000      -7.50000000      -7.50000000      -7.50000000      -7.50000000      -7.50000000      -7.50000000      -7.50000000      -7.50000000      -7.50000000      -7.50000000      -7.50000000      -7.50000000      -7.50000000      -7.50000000      -7.50000000      -7.50000000      -7.50000000      -7.50000000      -7.50000000      -7.50000000      -7.50000000      -7.50000000      -7.50000000      -7.50000000      -7.50000000      -7.50000000      -7.50000000      -7.50000000      -7.50000000      -7.50000000      -7.50000000      -7.50000000      -7.50000000      -7.50000000      -7.50000000      -7.50000000      -7.50000000      -7.50000000      -7.50000000      -7.50000000      -7.50000000      -7.50000000      -7.50000000      -7.50000000      -7.50000000      -7.50000000      -7.50000000      -7.50000000      -7.50000000      -7.50000000      -7.50000000      -7.50000000      -7.50000000      -7.50000000      -7.50000000      -7.50000000      -7.50000000      -7.50000000      -7.50000000      -7.50000000      -7.50000000      -7.50000000      -7.50000000      -7.50000000      -7.50000000      -7.50000000      -7.50000000      -7.50000000      -7.50000000      -7.50000000      -7.50000000      -7.50000000      -7.50000000      -7.50000000      -7.50000000      -7.50000000      -7.50000000      -7.50000000      -7.50000000      -7.50000000      -7.50000000      -7.50000000      -7.50000000      -7.50000000      -7.50000000
        -7.50000000      -7.50000000      -7.50000000      -7.50000000      -7.50000000      -7.50000000      -7.50000000      -7.50000000      -7.50000000      -7.50000000      -7.50000000      -7.50000000      -7.50000000      -7.50000000      -7.50000000      -7.50000000      -7.50000000      -7.50000000      -7.50000000      -7.50000000      -7.50000000      -7.50000000      -7.50000000      -7.50000000      -7.50000000      -7.50000000      -7.50000000      -7.50000000      -7.50000000      -7.50000000      -7.50000000      -7.50000000      -7.50000000      -7.50000000      -7.50000000      -7.50000000      -7.50000000      -7.50000000      -7.50000000      -7.50000000      -7.50000000      -7.50000000      -7.50000000      -7.50000000      -7.50000000      -7.50000000      -7.50000000      -7.50000000      -7.50000000      -7.50000000      -7.50000000      -7.50000000      -7.50000000      -7.50000000      -7.50000000      -7.50000000      -7.50000000      -7.50000000      -7.50000000      -7.50000000      -7.50000000      -7.50000000      -7.50000000      -7.50000000      -7.50000000      -7.50000000      -7.50000000      -7.50000000      -7.50000000      -7.50000000      -7.50000000      -7.50000000      -7.50000000      -7.50000000      -7.50000000      -7.50000000      -7.50000000      -7.50000000      -7.50000000      -7.50000000      -7.50000000      -7.50000000      -7.50000000      -7.50000000      -7.50000000      -7.50000000      -7.50000000      -7.50000000      -7.50000000      -7.50000000      -7.50000000      -7.50000000      -7.50000000      -7.50000000      -7.50000000      -7.50000000      -7.50000000      -7.50000000      -7.50000000      -7.50000000
        -7.50000000      -7.50000000      -7.50000000      -7.50000000      -7.50000000      -7.50000000      -7.50000000      -7.50000000      -7.50000000      -7.50000000      -7.50000000      -7.50000000      -7.50000000      -7.50000000      -7.50000000      -7.50000000      -7.50000000      -7.50000000      -7.50000000      -7.50000000      -7.50000000      -7.50000000      -7.50000000      -7.50000000      -7.50000000      -7.50000000      -7.50000000      -7.50000000      -7.50000000      -7.50000000      -7.50000000      -7.50000000      -7.50000000      -7.50000000      -7.50000000      -7.50000000      -7.50000000      -7.50000000      -7.50000000      -7.50000000      -7.50000000      -7.50000000      -7.50000000      -7.50000000      -7.50000000      -7.50000000      -7.50000000      -7.50000000      -7.50000000      -7.50000000      -7.50000000      -7.50000000      -7.50000000      -7.50000000      -7.50000000      -7.50000000      -7.50000000      -7.50000000      -7.50000000      -7.50000000      -7.50000000      -7.50000000      -7.50000000      -7.50000000      -7.50000000      -7.50000000      -7.50000000      -7.50000000      -7.50000000      -7.50000000      -7.50000000      -7.50000000      -7.50000000      -7.50000000      -7.50000000      -7.50000000      -7.50000000      -7.50000000      -7.50000000      -7.50000000      -7.50000000      -7.50000000      -7.50000000      -7.50000000      -7.50000000      -7.50000000      -7.50000000      -7.50000000      -7.50000000      -7.50000000      -7.50000000      -7.50000000      -7.50000000      -7.50000000      -7.50000000      -7.50000000      -7.50000000      -7.50000000      -7.50000000      -7.50000000
        -7.50000000      -7.50000000      -7.50000000      -7.50000000      -7.50000000      -7.50000000      -7.50000000      -7.50000000      -7.50000000      -7.50000000      -7.50000000      -7.50000000      -7.50000000      -7.50000000      -7.50000000      -7.50000000      -7.50000000      -7.50000000      -7.50000000      -7.50000000      -7.50000000      -7.50000000      -7.50000000      -7.50000000      -7.50000000      -7.50000000      -7.50000000      -7.50000000      -7.50000000      -7.50000000      -7.50000000      -7.50000000      -7.50000000      -7.50000000      -7.50000000      -7.50000000      -7.50000000      -7.50000000      -7.50000000      -7.50000000      -7.50000000      -7.50000000      -7.50000000      -7.50000000      -7.50000000      -7.50000000      -7.50000000      -7.50000000      -7.50000000      -7.50000000      -7.50000000      -7.50000000      -7.50000000      -7.50000000      -7.50000000      -7.50000000      -7.50000000      -7.50000000      -7.50000000      -7.50000000      -7.50000000      -7.50000000      -7.50000000      -7.50000000      -7.50000000      -7.50000000      -7.50000000      -7.50000000      -7.50000000      -7.50000000      -7.50000000      -7.50000000      -7.50000000      -7.50000000      -7.50000000      -7.50000000      -7.50000000      -7.50000000      -7.50000000      -7.50000000      -7.50000000      -7.50000000      -7.50000000      -7.50000000      -7.50000000      -7.50000000      -7.50000000      -7.50000000      -7.50000000      -7.50000000      -7.50000000      -7.50000000      -7.50000000      -7.50000000      -7.50000000      -7.50000000      -7.50000000      -7.50000000      -7.50000000      -7.50000000
        -7.50000000      -7.50000000      -7.50000000      -7.50000000      -7.50000000      -7.50000000      -7.50000000      -7.50000000      -7.50000000      -7.50000000      -7.50000000      -7.50000000      -7.50000000      -7.50000000      -7.50000000      -7.50000000      -7.50000000      -7.50000000      -7.50000000      -7.50000000      -7.50000000      -7.50000000      -7.50000000      -7.50000000      -7.50000000      -7.50000000      -7.50000000      -7.50000000      -7.50000000      -7.50000000      -7.50000000      -7.50000000      -7.50000000      -7.50000000      -7.50000000      -7.50000000      -7.50000000      -7.50000000      -7.50000000      -7.50000000      -7.50000000      -7.50000000      -7.50000000      -7.50000000      -7.50000000      -7.50000000      -7.50000000      -7.50000000      -7.50000000      -7.50000000      -7.50000000      -7.50000000      -7.50000000      -7.50000000      -7.50000000      -7.50000000      -7.50000000      -7.50000000      -7.50000000      -7.50000000      -7.50000000      -7.50000000      -7.50000000      -7.50000000      -7.50000000      -7.50000000      -7.50000000      -7.50000000      -7.50000000      -7.50000000      -7.50000000      -7.50000000      -7.50000000      -7.50000000      -7.50000000      -7.50000000      -7.50000000      -7.50000000      -7.50000000      -7.50000000      -7.50000000      -7.50000000      -7.50000000      -7.50000000      -7.50000000      -7.50000000      -7.50000000      -7.50000000      -7.50000000      -7.50000000      -7.50000000      -7.50000000      -7.50000000      -7.50000000      -7.50000000      -7.50000000      -7.50000000      -7.50000000      -7.50000000      -7.50000000
        -7.50000000      -7.50000000      -7.50000000      -7.50000000      -7.50000000      -7.50000000      -7.50000000      -7.50000000      -7.50000000      -7.50000000      -7.50000000      -7.50000000      -7.50000000      -7.50000000      -7.50000000      -7.50000000      -7.50000000      -7.50000000      -7.50000000      -7.50000000      -7.50000000      -7.50000000      -7.50000000      -7.50000000      -7.50000000      -7.50000000      -7.50000000      -7.50000000      -7.50000000      -7.50000000      -7.50000000      -7.50000000      -7.50000000      -7.50000000      -7.50000000      -7.50000000      -7.50000000      -7.50000000      -7.50000000      -7.50000000      -7.50000000      -7.50000000      -7.50000000      -7.50000000      -7.50000000      -7.50000000      -7.50000000      -7.50000000      -7.50000000      -7.50000000      -7.50000000      -7.50000000      -7.50000000      -7.50000000      -7.50000000      -7.50000000      -7.50000000      -7.50000000      -7.50000000      -7.50000000      -7.50000000      -7.50000000      -7.50000000      -7.50000000      -7.50000000      -7.50000000      -7.50000000      -7.50000000      -7.50000000      -7.50000000      -7.50000000      -7.50000000      -7.50000000      -7.50000000      -7.50000000      -7.47999954      -7.50000000      -7.50000000      -7.50000000      -7.50000000      -7.50000000      -7.50000000      -7.50000000      -7.50000000      -7.50000000      -7.50000000      -7.50000000      -7.50000000      -7.50000000      -7.50000000      -7.50000000      -7.50000000      -7.50000000      -7.50000000      -7.50000000      -7.50000000      -7.50000000      -7.50000000      -7.50000000      -7.50000000
        -7.50000000      -7.50000000      -7.50000000      -7.50000000      -7.50000000      -7.50000000      -7.50000000      -7.50000000      -7.50000000      -7.50000000      -7.50000000      -7.50000000      -7.50000000      -7.50000000      -7.50000000      -7.50000000      -7.50000000      -7.50000000      -7.50000000      -7.50000000      -7.50000000      -7.50000000      -7.50000000      -7.50000000      -7.50000000      -7.50000000      -7.50000000      -7.50000000      -7.50000000      -7.50000000      -7.50000000      -7.50000000      -7.50000000      -7.50000000      -7.50000000      -7.50000000      -7.50000000      -7.50000000      -7.50000000      -7.50000000      -7.50000000      -7.50000000      -7.50000000      -7.50000000      -7.50000000      -7.50000000      -7.50000000      -7.50000000      -7.50000000      -7.50000000      -7.50000000      -7.50000000      -7.50000000      -7.50000000      -7.50000000      -7.50000000      -7.50000000      -7.50000000      -7.50000000      -7.50000000      -7.50000000      -7.50000000      -7.50000000      -7.50000000      -7.50000000      -7.50000000      -7.50000000      -7.50000000      -7.50000000      -7.50000000      -7.50000000      -7.50000000      -7.50000000      -7.47999954      -7.47999954      -7.47999954      -7.47999954      -7.50000000      -7.50000000      -7.50000000      -7.50000000      -7.50000000      -7.50000000      -7.50000000      -7.50000000      -7.50000000      -7.50000000      -7.50000000      -7.50000000      -7.50000000      -7.50000000      -7.50000000      -7.50000000      -7.50000000      -7.50000000      -7.50000000      -7.50000000      -7.50000000      -7.50000000      -7.50000000