# File generated by Flopy version 3.9.3 on 10/06/2025 at 15:31:30.
BEGIN options
  XT3D_OFF
END options

BEGIN griddata
  diffc
    CONSTANT  1.00000000E-09
  alh
    CONSTANT       1.50000000
  ath1
    CONSTANT       1.50000000
END griddata

