# File generated by Flopy version 3.9.3 on 09/16/2025 at 10:14:01.
BEGIN options
END options

BEGIN packages
  DSP6  gwt-sim_test.dsp  dsp
  DIS6  gwt-sim_test.dis  dis
  IC6  gwt-sim_test.ic  ic
  ADV6  gwt-sim_test.adv  adv
  OC6  gwt-sim_test.oc  oc
  FMI6  gwt-sim_test.fmi  fmi
  MST6  gwt-sim_test.mst  mst
  SSM6  gwt-sim_test.ssm  ssm
END packages

