# File generated by Flopy version 3.9.3 on 09/16/2025 at 10:14:02.
BEGIN options
  SAVE_FLOWS
END options

BEGIN sources
  WEL-INJ  AUX  Concentration
END sources

