# File generated by Flopy version 3.9.3 on 09/16/2025 at 10:14:01.
BEGIN options
  SCHEME  upstream
END options

