# File generated by Flopy version 3.9.3 on 09/16/2025 at 10:14:01.
BEGIN options
END options

BEGIN timing
  TDIS6  sim_test.tdis
END timing

BEGIN models
  gwt6  gwt-sim_test.nam  gwt-sim_test
END models

BEGIN exchanges
END exchanges

BEGIN solutiongroup  1
  ims6  sim_test.ims  gwt-sim_test
END solutiongroup  1

