# File generated by Flopy version 3.9.5 on 12/11/2025 at 15:18:19.
BEGIN options
END options

BEGIN timing
  TDIS6  sim_test.tdis
END timing

BEGIN models
  gwt6  gwt-sim_test.nam  gwt-sim_test
END models

BEGIN exchanges
END exchanges

BEGIN solutiongroup  1
  ims6  sim_test.ims  gwt-sim_test
END solutiongroup  1

