# File generated by Flopy version 3.9.5 on 12/11/2025 at 15:18:19.
BEGIN options
  TIME_UNITS  seconds
END options

BEGIN dimensions
  NPER  1
END dimensions

BEGIN perioddata
  8.64000000E+05  50       1.10000000
END perioddata

