# File generated by Flopy version 3.9.3 on 06/09/2025 at 12:23:00.
BEGIN options
  TIME_UNITS  seconds
END options

BEGIN dimensions
  NPER  1
END dimensions

BEGIN perioddata
  8.64000000E+05  50       1.10000000
END perioddata

