# File generated by Flopy version 3.9.3 on 09/16/2025 at 10:14:01.
BEGIN options
  TIME_UNITS  seconds
END options

BEGIN dimensions
  NPER  1
END dimensions

BEGIN perioddata
  8.64000000E+05  50       1.10000000
END perioddata

