# File generated by Flopy version 3.9.5 on 11/03/2025 at 10:11:36.
BEGIN options
  PRINT_OPTION  summary
  COMPLEXITY  moderate
END options

