# File generated by Flopy version 3.9.5 on 11/03/2025 at 10:11:36.
BEGIN options
  TIME_UNITS  seconds
END options

BEGIN dimensions
  NPER  1
END dimensions

BEGIN perioddata
  8.64000000E+05  50       1.10000000
END perioddata

