# File generated by Flopy version 3.9.3 on 06/09/2025 at 12:23:00.
BEGIN options
  PRINT_OPTION  summary
  COMPLEXITY  moderate
END options

