# File generated by Flopy version 3.9.1 on 06/09/2025 at 13:02:02.
BEGIN options
END options

BEGIN packages
  WEL6  test_0.wel  wel-prod
  WEL6  test.wel  wel-inj
  CHD6  test_0.chd  chd-2
  CHD6  test.chd  chd-1
  DIS6  test.dis  dis
  IC6  test.ic  ic
  OC6  test.oc  oc
  NPF6  test.npf  npf
END packages

