# File generated by Flopy version 3.9.3 on 10/06/2025 at 15:22:18.
BEGIN options
  XORIGIN       0.00000000
  YORIGIN       0.00000000
  ANGROT       0.00000000
END options

BEGIN dimensions
  NLAY  6
  NROW  50
  NCOL  100
END dimensions

BEGIN griddata
  delr
    CONSTANT       1.50000000
  delc
    CONSTANT       1.50000000
  top
    INTERNAL  FACTOR  1.0
        -7.50000000      -7.50000000      -7.50000000      -7.50000000      -7.50000000      -7.50000000      -7.50000000      -7.50000000      -7.50000000      -7.50000000      -7.50000000      -7.50000000      -7.50000000      -7.50000000      -7.50000000      -7.50000000      -7.50000000      -7.50000000      -7.50000000      -7.50000000      -7.50000000      -7.50000000      -7.50000000      -7.50000000      -7.50000000      -7.50000000      -7.50000000      -7.50000000      -7.50000000      -7.50000000      -7.50000000      -7.50000000      -7.50000000      -7.50000000      -7.50000000      -7.50000000      -7.50000000      -7.50000000      -7.50000000      -7.50000000      -7.50000000      -7.50000000      -7.50000000      -7.50000000      -7.50000000      -7.50000000      -7.50000000      -7.50000000      -7.50000000      -7.50000000      -7.50000000      -7.50000000      -7.50000000      -7.50000000      -7.50000000      -7.50000000      -7.50000000      -7.50000000      -7.50000000      -7.50000000      -7.50000000      -7.50000000      -7.50000000      -7.50000000      -7.50000000      -7.50000000      -7.50000000      -7.50000000      -7.50000000      -7.50000000      -7.50000000      -7.50000000      -7.50000000      -7.50000000      -7.48999977      -7.48999977      -7.48999977      -7.48999977      -7.48999977      -7.50000000      -7.50000000      -7.50000000      -7.50000000      -7.50000000      -7.50000000      -7.50000000      -7.50000000      -7.50000000      -7.50000000      -7.50000000      -7.50000000      -7.50000000      -7.50000000      -7.50000000      -7.50000000      -7.50000000      -7.50000000      -7.50000000      -7.50000000      -7.50000000
        -7.50000000      -7.50000000      -7.50000000      -7.50000000      -7.50000000      -7.50000000      -7.50000000      -7.50000000      -7.50000000      -7.50000000      -7.50000000      -7.50000000      -7.50000000      -7.50000000      -7.50000000      -7.50000000      -7.50000000      -7.50000000      -7.50000000      -7.50000000      -7.50000000      -7.50000000      -7.50000000      -7.50000000      -7.50000000      -7.50000000      -7.50000000      -7.50000000      -7.50000000      -7.50000000      -7.50000000      -7.50000000      -7.50000000      -7.50000000      -7.50000000      -7.50000000      -7.50000000      -7.50000000      -7.50000000      -7.50000000      -7.50000000      -7.50000000      -7.50000000      -7.50000000      -7.50000000      -7.50000000      -7.50000000      -7.50000000      -7.50000000      -7.50000000      -7.50000000      -7.50000000      -7.50000000      -7.50000000      -7.50000000      -7.50000000      -7.50000000      -7.50000000      -7.50000000      -7.50000000      -7.50000000      -7.50000000      -7.50000000      -7.50000000      -7.50000000      -7.50000000      -7.50000000      -7.50000000      -7.50000000      -7.50000000      -7.50000000      -7.50000000      -7.50000000      -7.50000000      -7.50000000      -7.48999977      -7.48999977      -7.50000000      -7.50000000      -7.50000000      -7.50000000      -7.50000000      -7.50000000      -7.50000000      -7.50000000      -7.50000000      -7.50000000      -7.50000000      -7.50000000      -7.50000000      -7.50000000      -7.50000000      -7.50000000      -7.50000000      -7.50000000      -7.50000000      -7.50000000      -7.50000000      -7.50000000      -7.50000000
        -7.50000000      -7.50000000      -7.50000000      -7.50000000      -7.50000000      -7.50000000      -7.50000000      -7.50000000      -7.50000000      -7.50000000      -7.50000000      -7.50000000      -7.50000000      -7.50000000      -7.50000000      -7.50000000      -7.50000000      -7.50000000      -7.50000000      -7.50000000      -7.50000000      -7.50000000      -7.50000000      -7.50000000      -7.50000000      -7.50000000      -7.50000000      -7.50000000      -7.50000000      -7.50000000      -7.50000000      -7.50000000      -7.50000000      -7.50000000      -7.50000000      -7.50000000      -7.50000000      -7.50000000      -7.50000000      -7.50000000      -7.50000000      -7.50000000      -7.50000000      -7.50000000      -7.50000000      -7.50000000      -7.50000000      -7.50000000      -7.50000000      -7.50000000      -7.50000000      -7.50000000      -7.50000000      -7.50000000      -7.50000000      -7.50000000      -7.50000000      -7.50000000      -7.50000000      -7.50000000      -7.50000000      -7.50000000      -7.50000000      -7.50000000      -7.50000000      -7.50000000      -7.50000000      -7.50000000      -7.50000000      -7.50000000      -7.50000000      -7.50000000      -7.50000000      -7.50000000      -7.50000000      -7.50000000      -7.50000000      -7.50000000      -7.50000000      -7.50000000      -7.50000000      -7.50000000      -7.50000000      -7.50000000      -7.50000000      -7.50000000      -7.50000000      -7.50000000      -7.50000000      -7.50000000      -7.50000000      -7.50000000      -7.50000000      -7.50000000      -7.50000000      -7.50000000      -7.50000000      -7.50000000      -7.50000000      -7.50000000
        -7.50000000      -7.50000000      -7.50000000      -7.50000000      -7.50000000      -7.50000000      -7.50000000      -7.50000000      -7.50000000      -7.50000000      -7.50000000      -7.50000000      -7.50000000      -7.50000000      -7.50000000      -7.50000000      -7.50000000      -7.50000000      -7.50000000      -7.50000000      -7.50000000      -7.50000000      -7.50000000      -7.50000000      -7.50000000      -7.50000000      -7.50000000      -7.50000000      -7.50000000      -7.50000000      -7.50000000      -7.50000000      -7.50000000      -7.50000000      -7.50000000      -7.50000000      -7.50000000      -7.50000000      -7.50000000      -7.50000000      -7.50000000      -7.50000000      -7.50000000      -7.50000000      -7.50000000      -7.50000000      -7.50000000      -7.50000000      -7.50000000      -7.50000000      -7.50000000      -7.50000000      -7.50000000      -7.50000000      -7.50000000      -7.50000000      -7.50000000      -7.50000000      -7.50000000      -7.50000000      -7.50000000      -7.50000000      -7.50000000      -7.50000000      -7.50000000      -7.50000000      -7.50000000      -7.50000000      -7.50000000      -7.50000000      -7.50000000      -7.50000000      -7.50000000      -7.50000000      -7.50000000      -7.50000000      -7.50000000      -7.50000000      -7.50000000      -7.50000000      -7.50000000      -7.50000000      -7.50000000      -7.50000000      -7.50000000      -7.50000000      -7.50000000      -7.50000000      -7.50000000      -7.50000000      -7.50000000      -7.50000000      -7.50000000      -7.50000000      -7.50000000      -7.50000000      -7.50000000      -7.50000000      -7.50000000      -7.50000000
        -7.50000000      -7.50000000      -7.50000000      -7.50000000      -7.50000000      -7.50000000      -7.50000000      -7.50000000      -7.50000000      -7.50000000      -7.50000000      -7.50000000      -7.50000000      -7.50000000      -7.50000000      -7.50000000      -7.50000000      -7.50000000      -7.50000000      -7.50000000      -7.50000000      -7.50000000      -7.50000000      -7.50000000      -7.50000000      -7.50000000      -7.50000000      -7.50000000      -7.50000000      -7.50000000      -7.50000000      -7.50000000      -7.50000000      -7.50000000      -7.50000000      -7.50000000      -7.50000000      -7.50000000      -7.50000000      -7.50000000      -7.50000000      -7.50000000      -7.50000000      -7.50000000      -7.50000000      -7.50000000      -7.50000000      -7.50000000      -7.50000000      -7.50000000      -7.50000000      -7.50000000      -7.50000000      -7.50000000      -7.50000000      -7.50000000      -7.50000000      -7.50000000      -7.50000000      -7.50000000      -7.50000000      -7.50000000      -7.50000000      -7.50000000      -7.50000000      -7.50000000      -7.50000000      -7.50000000      -7.50000000      -7.50000000      -7.50000000      -7.50000000      -7.50000000      -7.50000000      -7.50000000      -7.50000000      -7.50000000      -7.50000000      -7.50000000      -7.50000000      -7.50000000      -7.50000000      -7.50000000      -7.50000000      -7.50000000      -7.50000000      -7.50000000      -7.50000000      -7.50000000      -7.50000000      -7.50000000      -7.50000000      -7.50000000      -7.50000000      -7.50000000      -7.50000000      -7.50000000      -7.50000000      -7.50000000      -7.50000000
        -7.50000000      -7.50000000      -7.50000000      -7.50000000      -7.50000000      -7.50000000      -7.50000000      -7.50000000      -7.50000000      -7.50000000      -7.50000000      -7.50000000      -7.50000000      -7.50000000      -7.50000000      -7.50000000      -7.50000000      -7.50000000      -7.50000000      -7.50000000      -7.50000000      -7.50000000      -7.50000000      -7.50000000      -7.50000000      -7.50000000      -7.50000000      -7.50000000      -7.50000000      -7.50000000      -7.50000000      -7.50000000      -7.50000000      -7.50000000      -7.50000000      -7.50000000      -7.50000000      -7.50000000      -7.50000000      -7.50000000      -7.50000000      -7.50000000      -7.50000000      -7.50000000      -7.50000000      -7.50000000      -7.50000000      -7.50000000      -7.50000000      -7.50000000      -7.50000000      -7.50000000      -7.50000000      -7.50000000      -7.50000000      -7.50000000      -7.50000000      -7.50000000      -7.50000000      -7.50000000      -7.50000000      -7.50000000      -7.50000000      -7.50000000      -7.50000000      -7.50000000      -7.50000000      -7.50000000      -7.50000000      -7.50000000      -7.50000000      -7.50000000      -7.50000000      -7.50000000      -7.50000000      -7.50000000      -7.50000000      -7.50000000      -7.50000000      -7.50000000      -7.50000000      -7.50000000      -7.50000000      -7.50000000      -7.50000000      -7.50000000      -7.50000000      -7.50000000      -7.50000000      -7.50000000      -7.50000000      -7.50000000      -7.50000000      -7.50000000      -7.50000000      -7.50000000      -7.50000000      -7.50000000      -7.50000000      -7.50000000
        -7.50000000      -7.50000000      -7.50000000      -7.50000000      -7.50000000      -7.50000000      -7.50000000      -7.50000000      -7.50000000      -7.50000000      -7.50000000      -7.50000000      -7.50000000      -7.50000000      -7.50000000      -7.50000000      -7.50000000      -7.50000000      -7.50000000      -7.50000000      -7.50000000      -7.50000000      -7.50000000      -7.50000000      -7.50000000      -7.50000000      -7.50000000      -7.50000000      -7.50000000      -7.50000000      -7.50000000      -7.50000000      -7.50000000      -7.50000000      -7.50000000      -7.50000000      -7.50000000      -7.50000000      -7.50000000      -7.50000000      -7.50000000      -7.50000000      -7.50000000      -7.50000000      -7.50000000      -7.50000000      -7.50000000      -7.50000000      -7.50000000      -7.50000000      -7.50000000      -7.50000000      -7.50000000      -7.50000000      -7.50000000      -7.50000000      -7.50000000      -7.50000000      -7.50000000      -7.50000000      -7.50000000      -7.50000000      -7.50000000      -7.50000000      -7.50000000      -7.50000000      -7.50000000      -7.50000000      -7.50000000      -7.50000000      -7.50000000      -7.50000000      -7.50000000      -7.50000000      -7.50000000      -7.50000000      -7.50000000      -7.50000000      -7.50000000      -7.50000000      -7.50000000      -7.50000000      -7.50000000      -7.50000000      -7.50000000      -7.50000000      -7.50000000      -7.50000000      -7.50000000      -7.50000000      -7.50000000      -7.50000000      -7.50000000      -7.50000000      -7.50000000      -7.50000000      -7.50000000      -7.50000000      -7.50000000      -7.50000000
        -7.50000000      -7.50000000      -7.50000000      -7.50000000      -7.50000000      -7.50000000      -7.50000000      -7.50000000      -7.50000000      -7.50000000      -7.50000000      -7.50000000      -7.50000000      -7.50000000      -7.50000000      -7.50000000      -7.50000000      -7.50000000      -7.50000000      -7.50000000      -7.50000000      -7.50000000      -7.50000000      -7.50000000      -7.50000000      -7.50000000      -7.50000000      -7.50000000      -7.50000000      -7.50000000      -7.50000000      -7.50000000      -7.50000000      -7.50000000      -7.50000000      -7.50000000      -7.50000000      -7.50000000      -7.50000000      -7.50000000      -7.50000000      -7.50000000      -7.50000000      -7.50000000      -7.50000000      -7.50000000      -7.50000000      -7.50000000      -7.50000000      -7.50000000      -7.50000000      -7.50000000      -7.50000000      -7.50000000      -7.50000000      -7.50000000      -7.50000000      -7.50000000      -7.50000000      -7.50000000      -7.50000000      -7.50000000      -7.50000000      -7.50000000      -7.50000000      -7.50000000      -7.50000000      -7.50000000      -7.50000000      -7.50000000      -7.50000000      -7.50000000      -7.50000000      -7.50000000      -7.50000000      -7.50000000      -7.50000000      -7.50000000      -7.50000000      -7.50000000      -7.50000000      -7.50000000      -7.50000000      -7.50000000      -7.50000000      -7.50000000      -7.50000000      -7.50000000      -7.50000000      -7.50000000      -7.50000000      -7.50000000      -7.50000000      -7.50000000      -7.50000000      -7.50000000      -7.50000000      -7.50000000      -7.50000000      -7.50000000
        -7.50000000      -7.50000000      -7.50000000      -7.50000000      -7.50000000      -7.50000000      -7.50000000      -7.50000000      -7.50000000      -7.50000000      -7.50000000      -7.50000000      -7.50000000      -7.50000000      -7.50000000      -7.50000000      -7.50000000      -7.50000000      -7.50000000      -7.50000000      -7.50000000      -7.50000000      -7.50000000      -7.50000000      -7.50000000      -7.50000000      -7.50000000      -7.50000000      -7.50000000      -7.50000000      -7.50000000      -7.50000000      -7.50000000      -7.50000000      -7.50000000      -7.50000000      -7.50000000      -7.50000000      -7.50000000      -7.50000000      -7.50000000      -7.50000000      -7.50000000      -7.50000000      -7.50000000      -7.50000000      -7.50000000      -7.50000000      -7.50000000      -7.50000000      -7.50000000      -7.50000000      -7.50000000      -7.50000000      -7.50000000      -7.50000000      -7.50000000      -7.50000000      -7.50000000      -7.50000000      -7.50000000      -7.50000000      -7.50000000      -7.50000000      -7.50000000      -7.50000000      -7.50000000      -7.50000000      -7.50000000      -7.50000000      -7.50000000      -7.50000000      -7.50000000      -7.50000000      -7.50000000      -7.50000000      -7.50000000      -7.50000000      -7.50000000      -7.50000000      -7.50000000      -7.50000000      -7.50000000      -7.50000000      -7.50000000      -7.50000000      -7.50000000      -7.50000000      -7.50000000      -7.50000000      -7.50000000      -7.50000000      -7.50000000      -7.50000000      -7.50000000      -7.50000000      -7.50000000      -7.50000000      -7.50000000      -7.50000000
        -7.50000000      -7.50000000      -7.50000000      -7.50000000      -7.50000000      -7.50000000      -7.50000000      -7.50000000      -7.50000000      -7.50000000      -7.50000000      -7.50000000      -7.50000000      -7.50000000      -7.50000000      -7.50000000      -7.50000000      -7.50000000      -7.50000000      -7.50000000      -7.50000000      -7.50000000      -7.50000000      -7.50000000      -7.50000000      -7.50000000      -7.50000000      -7.50000000      -7.50000000      -7.50000000      -7.50000000      -7.50000000      -7.50000000      -7.50000000      -7.50000000      -7.50000000      -7.50000000      -7.50000000      -7.50000000      -7.50000000      -7.50000000      -7.50000000      -7.50000000      -7.50000000      -7.50000000      -7.50000000      -7.50000000      -7.50000000      -7.50000000      -7.50000000      -7.50000000      -7.50000000      -7.50000000      -7.50000000      -7.50000000      -7.50000000      -7.50000000      -7.50000000      -7.50000000      -7.50000000      -7.50000000      -7.50000000      -7.50000000      -7.50000000      -7.50000000      -7.50000000      -7.50000000      -7.50000000      -7.50000000      -7.50000000      -7.50000000      -7.50000000      -7.50000000      -7.50000000      -7.50000000      -7.50000000      -7.50000000      -7.50000000      -7.50000000      -7.50000000      -7.50000000      -7.50000000      -7.50000000      -7.50000000      -7.50000000      -7.50000000      -7.50000000      -7.50000000      -7.50000000      -7.50000000      -7.50000000      -7.50000000      -7.50000000      -7.50000000      -7.50000000      -7.50000000      -7.50000000      -7.50000000      -7.50000000      -7.50000000
        -7.50000000      -7.50000000      -7.50000000      -7.50000000      -7.50000000      -7.50000000      -7.50000000      -7.50000000      -7.50000000      -7.50000000      -7.50000000      -7.50000000      -7.50000000      -7.50000000      -7.50000000      -7.50000000      -7.50000000      -7.50000000      -7.50000000      -7.50000000      -7.50000000      -7.50000000      -7.50000000      -7.50000000      -7.50000000      -7.50000000      -7.50000000      -7.50000000      -7.50000000      -7.50000000      -7.50000000      -7.50000000      -7.50000000      -7.50000000      -7.50000000      -7.50000000      -7.50000000      -7.50000000      -7.50000000      -7.50000000      -7.50000000      -7.50000000      -7.50000000      -7.50000000      -7.50000000      -7.50000000      -7.50000000      -7.50000000      -7.50000000      -7.50000000      -7.50000000      -7.50000000      -7.50000000      -7.50000000      -7.50000000      -7.50000000      -7.50000000      -7.50000000      -7.50000000      -7.50000000      -7.50000000      -7.50000000      -7.50000000      -7.50000000      -7.50000000      -7.50000000      -7.50000000      -7.50000000      -7.50000000      -7.50000000      -7.50000000      -7.50000000      -7.50000000      -7.50000000      -7.50000000      -7.50000000      -7.50000000      -7.50000000      -7.50000000      -7.50000000      -7.50000000      -7.50000000      -7.50000000      -7.50000000      -7.50000000      -7.50000000      -7.50000000      -7.50000000      -7.50000000      -7.50000000      -7.50000000      -7.50000000      -7.50000000      -7.50000000      -7.50000000      -7.50000000      -7.50000000      -7.50000000      -7.50000000      -7.50000000
        -7.50000000      -7.50000000      -7.50000000      -7.50000000      -7.50000000      -7.50000000      -7.50000000      -7.50000000      -7.50000000      -7.50000000      -7.50000000      -7.50000000      -7.50000000      -7.50000000      -7.50000000      -7.50000000      -7.50000000      -7.50000000      -7.50000000      -7.50000000      -7.50000000      -7.50000000      -7.50000000      -7.50000000      -7.50000000      -7.50000000      -7.50000000      -7.50000000      -7.50000000      -7.50000000      -7.50000000      -7.50000000      -7.50000000      -7.50000000      -7.50000000      -7.50000000      -7.50000000      -7.50000000      -7.50000000      -7.50000000      -7.50000000      -7.50000000      -7.50000000      -7.50000000      -7.50000000      -7.50000000      -7.50000000      -7.50000000      -7.50000000      -7.50000000      -7.50000000      -7.50000000      -7.50000000      -7.50000000      -7.50000000      -7.50000000      -7.50000000      -7.50000000      -7.50000000      -7.50000000      -7.50000000      -7.50000000      -7.50000000      -7.50000000      -7.50000000      -7.50000000      -7.50000000      -7.50000000      -7.50000000      -7.50000000      -7.50000000      -7.50000000      -7.50000000      -7.50000000      -7.50000000      -7.50000000      -7.50000000      -7.50000000      -7.50000000      -7.50000000      -7.50000000      -7.50000000      -7.50000000      -7.50000000      -7.50000000      -7.50000000      -7.50000000      -7.50000000      -7.50000000      -7.50000000      -7.50000000      -7.50000000      -7.50000000      -7.50000000      -7.50000000      -7.50000000      -7.50000000      -7.50000000      -7.50000000      -7.50000000
        -7.50000000      -7.50000000      -7.50000000      -7.50000000      -7.50000000      -7.50000000      -7.50000000      -7.50000000      -7.50000000      -7.50000000      -7.50000000      -7.50000000      -7.50000000      -7.50000000      -7.50000000      -7.50000000      -7.50000000      -7.50000000      -7.50000000      -7.50000000      -7.50000000      -7.50000000      -7.50000000      -7.50000000      -7.50000000      -7.50000000      -7.50000000      -7.50000000      -7.50000000      -7.50000000      -7.50000000      -7.50000000      -7.50000000      -7.50000000      -7.50000000      -7.50000000      -7.50000000      -7.50000000      -7.50000000      -7.50000000      -7.50000000      -7.50000000      -7.50000000      -7.50000000      -7.50000000      -7.50000000      -7.50000000      -7.50000000      -7.50000000      -7.50000000      -7.50000000      -7.50000000      -7.50000000      -7.50000000      -7.50000000      -7.50000000      -7.50000000      -7.50000000      -7.50000000      -7.50000000      -7.50000000      -7.50000000      -7.50000000      -7.50000000      -7.50000000      -7.50000000      -7.50000000      -7.50000000      -7.50000000      -7.50000000      -7.50000000      -7.50000000      -7.50000000      -7.50000000      -7.50000000      -7.50000000      -7.50000000      -7.50000000      -7.50000000      -7.50000000      -7.50000000      -7.50000000      -7.50000000      -7.50000000      -7.50000000      -7.50000000      -7.50000000      -7.50000000      -7.50000000      -7.50000000      -7.50000000      -7.50000000      -7.50000000      -7.50000000      -7.50000000      -7.50000000      -7.50000000      -7.50000000      -7.50000000      -7.50000000
        -7.50000000      -7.50000000      -7.50000000      -7.50000000      -7.50000000      -7.50000000      -7.50000000      -7.50000000      -7.50000000      -7.50000000      -7.50000000      -7.50000000      -7.50000000      -7.50000000      -7.50000000      -7.50000000      -7.50000000      -7.50000000      -7.50000000      -7.50000000      -7.50000000      -7.50000000      -7.50000000      -7.50000000      -7.50000000      -7.50000000      -7.50000000      -7.50000000      -7.50000000      -7.50000000      -7.50000000      -7.50000000      -7.50000000      -7.50000000      -7.50000000      -7.50000000      -7.50000000      -7.50000000      -7.50000000      -7.50000000      -7.50000000      -7.50000000      -7.50000000      -7.50000000      -7.50000000      -7.50000000      -7.50000000      -7.50000000      -7.50000000      -7.50000000      -7.50000000      -7.50000000      -7.50000000      -7.50000000      -7.50000000      -7.50000000      -7.50000000      -7.50000000      -7.50000000      -7.50000000      -7.50000000      -7.50000000      -7.50000000      -7.50000000      -7.50000000      -7.50000000      -7.50000000      -7.50000000      -7.50000000      -7.50000000      -7.50000000      -7.50000000      -7.50000000      -7.50000000      -7.50000000      -7.50000000      -7.50000000      -7.50000000      -7.50000000      -7.50000000      -7.50000000      -7.50000000      -7.50000000      -7.50000000      -7.50000000      -7.50000000      -7.50000000      -7.50000000      -7.50000000      -7.50000000      -7.50000000      -7.50000000      -7.50000000      -7.50000000      -7.50000000      -7.50000000      -7.50000000      -7.50000000      -7.50000000      -7.50000000
        -7.50000000      -7.50000000      -7.50000000      -7.50000000      -7.50000000      -7.50000000      -7.50000000      -7.50000000      -7.50000000      -7.50000000      -7.50000000      -7.50000000      -7.50000000      -7.50000000      -7.50000000      -7.50000000      -7.50000000      -7.50000000      -7.50000000      -7.50000000      -7.50000000      -7.50000000      -7.50000000      -7.50000000      -7.50000000      -7.50000000      -7.50000000      -7.50000000      -7.50000000      -7.50000000      -7.50000000      -7.50000000      -7.50000000      -7.50000000      -7.50000000      -7.50000000      -7.50000000      -7.50000000      -7.50000000      -7.50000000      -7.50000000      -7.50000000      -7.50000000      -7.50000000      -7.50000000      -7.50000000      -7.50000000      -7.50000000      -7.50000000      -7.50000000      -7.50000000      -7.50000000      -7.50000000      -7.50000000      -7.50000000      -7.50000000      -7.50000000      -7.50000000      -7.50000000      -7.50000000      -7.50000000      -7.50000000      -7.50000000      -7.50000000      -7.50000000      -7.50000000      -7.50000000      -7.50000000      -7.50000000      -7.50000000      -7.50000000      -7.50000000      -7.50000000      -7.50000000      -7.50000000      -7.50000000      -7.50000000      -7.50000000      -7.50000000      -7.50000000      -7.50000000      -7.50000000      -7.50000000      -7.50000000      -7.50000000      -7.50000000      -7.50000000      -7.50000000      -7.50000000      -7.50000000      -7.50000000      -7.50000000      -7.50000000      -7.50000000      -7.50000000      -7.50000000      -7.50000000      -7.50000000      -7.50000000      -7.50000000
        -7.50000000      -7.50000000      -7.50000000      -7.50000000      -7.50000000      -7.50000000      -7.50000000      -7.50000000      -7.50000000      -7.50000000      -7.50000000      -7.50000000      -7.50000000      -7.50000000      -7.50000000      -7.50000000      -7.50000000      -7.50000000      -7.50000000      -7.50000000      -7.50000000      -7.50000000      -7.50000000      -7.50000000      -7.50000000      -7.50000000      -7.50000000      -7.50000000      -7.50000000      -7.50000000      -7.50000000      -7.50000000      -7.50000000      -7.50000000      -7.50000000      -7.50000000      -7.50000000      -7.50000000      -7.50000000      -7.50000000      -7.50000000      -7.50000000      -7.50000000      -7.50000000      -7.50000000      -7.50000000      -7.50000000      -7.50000000      -7.50000000      -7.50000000      -7.50000000      -7.50000000      -7.50000000      -7.50000000      -7.50000000      -7.50000000      -7.50000000      -7.50000000      -7.50000000      -7.50000000      -7.50000000      -7.50000000      -7.50000000      -7.50000000      -7.50000000      -7.50000000      -7.50000000      -7.50000000      -7.50000000      -7.50000000      -7.50000000      -7.50000000      -7.50000000      -7.50000000      -7.50000000      -7.50000000      -7.50000000      -7.50000000      -7.50000000      -7.50000000      -7.50000000      -7.50000000      -7.50000000      -7.50000000      -7.50000000      -7.50000000      -7.50000000      -7.50000000      -7.50000000      -7.50000000      -7.50000000      -7.50000000      -7.50000000      -7.50000000      -7.50000000      -7.50000000      -7.50000000      -7.50000000      -7.50000000      -7.50000000
        -7.50000000      -7.50000000      -7.50000000      -7.50000000      -7.50000000      -7.50000000      -7.50000000      -7.50000000      -7.50000000      -7.50000000      -7.50000000      -7.50000000      -7.50000000      -7.50000000      -7.50000000      -7.50000000      -7.50000000      -7.50000000      -7.50000000      -7.50000000      -7.50000000      -7.50000000      -7.50000000      -7.50000000      -7.50000000      -7.50000000      -7.50000000      -7.50000000      -7.50000000      -7.50000000      -7.50000000      -7.50000000      -7.50000000      -7.50000000      -7.50000000      -7.50000000      -7.50000000      -7.50000000      -7.50000000      -7.50000000      -7.50000000      -7.50000000      -7.50000000      -7.50000000      -7.50000000      -7.50000000      -7.50000000      -7.50000000      -7.50000000      -7.50000000      -7.50000000      -7.50000000      -7.50000000      -7.50000000      -7.50000000      -7.50000000      -7.50000000      -7.50000000      -7.50000000      -7.50000000      -7.50000000      -7.50000000      -7.50000000      -7.50000000      -7.50000000      -7.50000000      -7.50000000      -7.50000000      -7.50000000      -7.50000000      -7.50000000      -7.50000000      -7.50000000      -7.50000000      -7.50000000      -7.50000000      -7.50000000      -7.50000000      -7.50000000      -7.50000000      -7.50000000      -7.50000000      -7.50000000      -7.50000000      -7.50000000      -7.50000000      -7.50000000      -7.50000000      -7.50000000      -7.50000000      -7.50000000      -7.50000000      -7.50000000      -7.50000000      -7.50000000      -7.50000000      -7.50000000      -7.50000000      -7.50000000      -7.50000000