# File generated by Flopy version 3.9.1 on 06/09/2025 at 13:02:02.
BEGIN options
  auxiliary  TEMPERATURE
  SAVE_FLOWS
END options

BEGIN dimensions
  MAXBOUND  1
END dimensions

BEGIN period  1
  3 26 51 1.50000000E-03 7
END period  1

