# File generated by Flopy version 3.9.1 on 06/09/2025 at 13:02:02.
BEGIN options
  auxiliary  TEMPERATURE
  SAVE_FLOWS
END options

BEGIN dimensions
  MAXBOUND  300
END dimensions

BEGIN period  1
  1 1 100 0 10
  1 2 100 0 10
  1 3 100 0 10
  1 4 100 0 10
  1 5 100 0 10
  1 6 100 0 10
  1 7 100 0 10
  1 8 100 0 10
  1 9 100 0 10
  1 10 100 0 10
  1 11 100 0 10
  1 12 100 0 10
  1 13 100 0 10
  1 14 100 0 10
  1 15 100 0 10
  1 16 100 0 10
  1 17 100 0 10
  1 18 100 0 10
  1 19 100 0 10
  1 20 100 0 10
  1 21 100 0 10
  1 22 100 0 10
  1 23 100 0 10
  1 24 100 0 10
  1 25 100 0 10
  1 26 100 0 10
  1 27 100 0 10
  1 28 100 0 10
  1 29 100 0 10
  1 30 100 0 10
  1 31 100 0 10
  1 32 100 0 10
  1 33 100 0 10
  1 34 100 0 10
  1 35 100 0 10
  1 36 100 0 10
  1 37 100 0 10
  1 38 100 0 10
  1 39 100 0 10
  1 40 100 0 10
  1 41 100 0 10
  1 42 100 0 10
  1 43 100 0 10
  1 44 100 0 10
  1 45 100 0 10
  1 46 100 0 10
  1 47 100 0 10
  1 48 100 0 10
  1 49 100 0 10
  1 50 100 0 10
  2 1 100 0 10
  2 2 100 0 10
  2 3 100 0 10
  2 4 100 0 10
  2 5 100 0 10
  2 6 100 0 10
  2 7 100 0 10
  2 8 100 0 10
  2 9 100 0 10
  2 10 100 0 10
  2 11 100 0 10
  2 12 100 0 10
  2 13 100 0 10
  2 14 100 0 10
  2 15 100 0 10
  2 16 100 0 10
  2 17 100 0 10
  2 18 100 0 10
  2 19 100 0 10
  2 20 100 0 10
  2 21 100 0 10
  2 22 100 0 10
  2 23 100 0 10
  2 24 100 0 10
  2 25 100 0 10
  2 26 100 0 10
  2 27 100 0 10
  2 28 100 0 10
  2 29 100 0 10
  2 30 100 0 10
  2 31 100 0 10
  2 32 100 0 10
  2 33 100 0 10
  2 34 100 0 10
  2 35 100 0 10
  2 36 100 0 10
  2 37 100 0 10
  2 38 100 0 10
  2 39 100 0 10
  2 40 100 0 10
  2 41 100 0 10
  2 42 100 0 10
  2 43 100 0 10
  2 44 100 0 10
  2 45 100 0 10
  2 46 100 0 10
  2 47 100 0 10
  2 48 100 0 10
  2 49 100 0 10
  2 50 100 0 10
  3 1 100 0 10
  3 2 100 0 10
  3 3 100 0 10
  3 4 100 0 10
  3 5 100 0 10
  3 6 100 0 10
  3 7 100 0 10
  3 8 100 0 10
  3 9 100 0 10
  3 10 100 0 10
  3 11 100 0 10
  3 12 100 0 10
  3 13 100 0 10
  3 14 100 0 10
  3 15 100 0 10
  3 16 100 0 10
  3 17 100 0 10
  3 18 100 0 10
  3 19 100 0 10
  3 20 100 0 10
  3 21 100 0 10
  3 22 100 0 10
  3 23 100 0 10
  3 24 100 0 10
  3 25 100 0 10
  3 26 100 0 10
  3 27 100 0 10
  3 28 100 0 10
  3 29 100 0 10
  3 30 100 0 10
  3 31 100 0 10
  3 32 100 0 10
  3 33 100 0 10
  3 34 100 0 10
  3 35 100 0 10
  3 36 100 0 10
  3 37 100 0 10
  3 38 100 0 10
  3 39 100 0 10
  3 40 100 0 10
  3 41 100 0 10
  3 42 100 0 10
  3 43 100 0 10
  3 44 100 0 10
  3 45 100 0 10
  3 46 100 0 10
  3 47 100 0 10
  3 48 100 0 10
  3 49 100 0 10
  3 50 100 0 10
  4 1 100 0 10
  4 2 100 0 10
  4 3 100 0 10
  4 4 100 0 10
  4 5 100 0 10
  4 6 100 0 10
  4 7 100 0 10
  4 8 100 0 10
  4 9 100 0 10
  4 10 100 0 10
  4 11 100 0 10
  4 12 100 0 10
  4 13 100 0 10
  4 14 100 0 10
  4 15 100 0 10
  4 16 100 0 10
  4 17 100 0 10
  4 18 100 0 10
  4 19 100 0 10
  4 20 100 0 10
  4 21 100 0 10
  4 22 100 0 10
  4 23 100 0 10
  4 24 100 0 10
  4 25 100 0 10
  4 26 100 0 10
  4 27 100 0 10
  4 28 100 0 10
  4 29 100 0 10
  4 30 100 0 10
  4 31 100 0 10
  4 32 100 0 10
  4 33 100 0 10
  4 34 100 0 10
  4 35 100 0 10
  4 36 100 0 10
  4 37 100 0 10
  4 38 100 0 10
  4 39 100 0 10
  4 40 100 0 10
  4 41 100 0 10
  4 42 100 0 10
  4 43 100 0 10
  4 44 100 0 10
  4 45 100 0 10
  4 46 100 0 10
  4 47 100 0 10
  4 48 100 0 10
  4 49 100 0 10
  4 50 100 0 10
  5 1 100 0 10
  5 2 100 0 10
  5 3 100 0 10
  5 4 100 0 10
  5 5 100 0 10
  5 6 100 0 10
  5 7 100 0 10
  5 8 100 0 10
  5 9 100 0 10
  5 10 100 0 10
  5 11 100 0 10
  5 12 100 0 10
  5 13 100 0 10
  5 14 100 0 10
  5 15 100 0 10
  5 16 100 0 10
  5 17 100 0 10
  5 18 100 0 10
  5 19 100 0 10
  5 20 100 0 10
  5 21 100 0 10
  5 22 100 0 10
  5 23 100 0 10
  5 24 100 0 10
  5 25 100 0 10
  5 26 100 0 10
  5 27 100 0 10
  5 28 100 0 10
  5 29 100 0 10
  5 30 100 0 10
  5 31 100 0 10
  5 32 100 0 10
  5 33 100 0 10
  5 34 100 0 10
  5 35 100 0 10
  5 36 100 0 10
  5 37 100 0 10
  5 38 100 0 10
  5 39 100 0 10
  5 40 100 0 10
  5 41 100 0 10
  5 42 100 0 10
  5 43 100 0 10
  5 44 100 0 10
  5 45 100 0 10
  5 46 100 0 10
  5 47 100 0 10
  5 48 100 0 10
  5 49 100 0 10
  5 50 100 0 10
  6 1 100 0 10
  6 2 100 0 10
  6 3 100 0 10
  6 4 100 0 10
  6 5 100 0 10
  6 6 100 0 10
  6 7 100 0 10
  6 8 100 0 10
  6 9 100 0 10
  6 10 100 0 10
  6 11 100 0 10
  6 12 100 0 10
  6 13 100 0 10
  6 14 100 0 10
  6 15 100 0 10
  6 16 100 0 10
  6 17 100 0 10
  6 18 100 0 10
  6 19 100 0 10
  6 20 100 0 10
  6 21 100 0 10
  6 22 100 0 10
  6 23 100 0 10
  6 24 100 0 10
  6 25 100 0 10
  6 26 100 0 10
  6 27 100 0 10
  6 28 100 0 10
  6 29 100 0 10
  6 30 100 0 10
  6 31 100 0 10
  6 32 100 0 10
  6 33 100 0 10
  6 34 100 0 10
  6 35 100 0 10
  6 36 100 0 10
  6 37 100 0 10
  6 38 100 0 10
  6 39 100 0 10
  6 40 100 0 10
  6 41 100 0 10
  6 42 100 0 10
  6 43 100 0 10
  6 44 100 0 10
  6 45 100 0 10
  6 46 100 0 10
  6 47 100 0 10
  6 48 100 0 10
  6 49 100 0 10
  6 50 100 0 10
END period  1

