# File generated by Flopy version 3.9.1 on 06/09/2025 at 13:02:02.
BEGIN options
  SAVE_FLOWS
  SAVE_SPECIFIC_DISCHARGE
  SAVE_SATURATION
END options

BEGIN griddata
  icelltype
    CONSTANT  0
  k  LAYERED
    CONSTANT  1.00000000E-04
    CONSTANT  1.00000000E-08
    CONSTANT       0.00500000
    CONSTANT       0.00500000
    CONSTANT       0.00500000
    CONSTANT  1.00000000E-10
END griddata

