# File generated by Flopy version 3.9.2 on 06/23/2025 at 11:39:20.
BEGIN options
  auxiliary  TEMPERATURE
  SAVE_FLOWS
END options

BEGIN dimensions
  MAXBOUND  1
END dimensions

BEGIN period  1
  3 26 51 1.50000000E-03 7
END period  1

