# File generated by Flopy version 3.9.1 on 09/05/2025 at 20:14:23.
BEGIN options
  COMPLEXITY  moderate
END options

