# File generated by Flopy version 3.9.1 on 09/05/2025 at 20:14:33.
BEGIN options
  SAVE_FLOWS
  SAVE_SPECIFIC_DISCHARGE
  SAVE_SATURATION
  K33OVERK
END options

BEGIN griddata
  icelltype
    CONSTANT  0
  k  LAYERED
    CONSTANT  1.00000000E-06
    CONSTANT  1.00000000E-04
    CONSTANT  1.00000000E-07
    CONSTANT       0.00100000
    CONSTANT  1.00000000E-10
  k33  LAYERED
    CONSTANT       1.00000000
    CONSTANT       1.00000000
    CONSTANT       1.00000000
    CONSTANT       1.00000000
    CONSTANT       1.00000000
END griddata

