# File generated by Flopy version 3.9.2 on 06/10/2025 at 16:30:11.
BEGIN options
  SAVE_FLOWS
  SAVE_SPECIFIC_DISCHARGE
  SAVE_SATURATION
END options

BEGIN griddata
  icelltype
    CONSTANT  0
  k  LAYERED
    INTERNAL  FACTOR  1.0
      2.33528572E-05  7.64587355E-07  4.88474825E-07  2.84833561E-07  1.98888088E-07  4.07697869E-05  4.07697869E-05  4.07697869E-05  4.07697869E-05  4.07697869E-05  4.07697869E-05  4.07697869E-05  4.07697869E-05  4.07697869E-05  4.07697869E-05  4.07697869E-05  4.82312098E-05  1.48415654E-06  3.32442032E-05  1.89404273E-06  1.77695802E-06  1.56025817E-06  1.55056750E-06  1.65006804E-06  1.77489017E-06  1.86070690E-06  1.58836792E-06  1.30188175E-06  1.25714507E-06  1.21032906E-06  1.13866963E-06  5.39597795E-06  1.21993544E-05  4.21556651E-05  9.00398882E-05  1.05549720E-04  1.01815131E-04  9.18715668E-05  7.49607643E-05  6.93222755E-05  5.63957619E-05  4.74687149E-05  5.49176948E-05  6.90186134E-05  7.47576923E-05  8.25109601E-05  4.99670678E-05  9.21705350E-07  6.63702622E-07  4.62053634E-07  3.35077345E-07  4.07697869E-05  4.07697869E-05  4.07697869E-05  4.07697869E-05  4.07697869E-05  9.78713160E-07  9.83008022E-07  1.02064166E-06  1.08363793E-06  4.65927696E-05  4.40301519E-05  3.95760180E-05  6.10255665E-05  6.48193018E-05  1.08388325E-04  1.10973233E-04  1.46155027E-04  1.25681880E-04  7.05511338E-05  7.35935391E-05  7.64547731E-05  8.60867294E-05  1.49205996E-04  1.23775797E-04  1.12622824E-04  1.33056703E-04  8.89572766E-05  9.30384849E-05  4.52423337E-05  1.72196669E-05  8.69855683E-07  1.04286858E-06  1.26767077E-06  1.77603329E-06  2.95915152E-06  4.95660743E-06  8.34806906E-06  1.02146159E-05  1.13579026E-05  1.22284964E-05  1.09827088E-05  8.49240314E-06  5.15365537E-06  3.07639129E-06  1.91870686E-06  1.27334420E-06  8.98429676E-07  6.78305696E-07  5.89425497E-07  4.73934421E-07  4.27288057E-07  5.12556937E-07  5.93457742E-07  6.46381523E-07  7.03024114E-07  7.09471237E-07  9.07060723E-07  4.07697869E-05  4.07697869E-05  4.07697869E-05  4.07697869E-05  4.07697869E-05  4.07697869E-05  4.07697869E-05  4.07697869E-05  2.94596646E-07  2.87163914E-07  2.97719680E-07  3.69528976E-07  4.91913397E-07  2.00880495E-05  3.97101503E-05  3.09553143E-05  3.83520346E-05  5.24111274E-05  3.16162436E-06  3.37857341E-06  2.63723427E-06  1.93022424E-06  1.72559533E-06  1.63726497E-06  1.51459301E-06  1.41270220E-06  1.31537922E-06  1.56535543E-06  1.67790995E-06  1.92490825E-06  2.31120885E-06  2.90801927E-06
      7.83885639E-07  5.34773392E-07  3.53848122E-07  2.25647028E-07  1.64795637E-07  1.23900051E-07  4.07697869E-05  4.07697869E-05  4.07697869E-05  4.07697869E-05  4.07697869E-05  4.07697869E-05  4.07697869E-05  4.07697869E-05  4.07697869E-05  4.07697869E-05  1.32399623E-06  1.52089535E-06  1.89528043E-06  2.07736207E-06  2.26213365E-06  2.15341652E-06  2.08477036E-06  2.08451570E-06  2.32234902E-06  2.54744737E-06  2.40025952E-06  1.96179212E-06  1.65743745E-06  1.49986704E-06  1.28043325E-06  1.40897976E-06  1.40720831E-05  3.39355684E-05  6.97777214E-05  8.79155996E-05  9.09632290E-05  8.34418970E-05  7.36919028E-05  6.33721647E-05  5.77212777E-05  5.13396153E-05  6.51923183E-05  7.96232998E-05  9.33523406E-05  1.07865693E-04  6.98270960E-05  2.40833560E-05  5.98099518E-07  4.17449144E-07  3.25855325E-07  3.27888415E-07  3.57852656E-07  3.90203326E-07  4.82522353E-07  6.63826199E-07  7.89751766E-07  9.85718316E-07  1.05644733E-06  1.14285365E-06  1.04586661E-06  8.49031323E-07  5.76904386E-05  6.32356969E-05  8.42064546E-05  1.01949634E-04  1.07586013E-04  9.98727701E-05  1.29991648E-04  1.16466064E-04  1.00272380E-04  9.01742242E-05  1.10282454E-04  1.78235685E-04  1.84439370E-04  1.75874986E-04  1.61222692E-04  1.73796550E-04  1.09804641E-04  4.60778465E-05  2.63324873E-05  1.14609502E-05  9.11357438E-06  1.55250120E-06  2.23125721E-06  3.59003957E-06  5.59455657E-06  9.91129946E-06  1.35987948E-05  1.67002836E-05  1.71423744E-05  1.36511544E-05  9.80358618E-06  6.37923586E-06  4.01590160E-06  2.58994623E-06  1.77097229E-06  1.29358580E-06  8.49603396E-07  7.56247346E-07  5.42760461E-07  5.24404982E-07  5.24372012E-07  6.02200885E-07  6.54616429E-07  7.06839842E-07  7.19404397E-07  7.87203703E-07  7.03218404E-07  4.07697869E-05  4.07697869E-05  4.07697869E-05  4.07697869E-05  4.07697869E-05  4.07697869E-05  4.07697869E-05  2.21514540E-07  2.06644174E-07  2.27353354E-07  3.00360767E-07  3.04063942E-05  4.42722776E-05  3.07501650E-05  4.94733504E-05  4.51033411E-05  6.70772788E-05  1.05861487E-04  1.30498331E-04  2.36519850E-06  1.78262064E-06  1.72320142E-06  1.73425644E-06  1.59088290E-06  1.49998823E-06  1.42765577E-06  1.68262534E-06  1.83274301E-06  2.02065212E-06  2.14343208E-06  2.69832094E-06
      2.78072366E-05  3.65671980E-07  2.39249090E-07  1.74527386E-07  1.38771838E-07  1.00546536E-07  1.04339748E-07  1.21002586E-07  4.07697869E-05  4.07697869E-05  4.07697869E-05  4.07697869E-05  4.07697869E-05  4.07697869E-05  4.07697869E-05  4.07697869E-05  1.50297376E-06  1.43733541E-05  1.72676914E-06  1.90679066E-06  1.97291524E-06  2.15833825E-06  2.37542122E-06  2.51192500E-06  2.90156117E-06  3.28087367E-06  3.14554995E-06  2.80104018E-06  2.07696166E-06  1.65110544E-06  1.47799312E-06  5.81636550E-06  1.50190881E-05  3.14296740E-05  7.03611367E-05  9.21950923E-05  9.54591524E-05  9.99011681E-05  8.44666502E-05  7.38881354E-05  5.92352008E-05  6.17202168E-05  7.07463259E-05  7.64881697E-05  8.95185512E-05  1.20528937E-04  1.15135867E-04  5.80369269E-05  6.40350777E-07  4.62469160E-07  3.66065251E-07  3.50204630E-07  3.38095845E-07  4.02325099E-07  5.24004690E-07  6.66561959E-07  7.44495821E-07  8.79644233E-07  9.77549007E-07  3.71693968E-05  3.15651814E-05  2.86044633E-05  4.98107256E-05  6.90781599E-05  8.39812492E-05  1.32537505E-04  1.05584033E-04  9.76427109E-05  1.14660266E-04  1.34395988E-04  1.40564051E-04  1.20071600E-04  1.31198569E-04  2.08563055E-04  2.23617390E-04  1.75243913E-04  2.12366809E-04  2.08154786E-04  1.33674781E-04  8.27460462E-05  4.99219823E-05  2.45412612E-05  1.76977901E-05  8.92271964E-06  7.97906523E-06  7.63790467E-06  9.24588676E-06  1.24317530E-05  1.67789476E-05  1.86497491E-05  2.09512709E-05  1.71278316E-05  1.14262830E-05  7.50481922E-06  4.99457428E-06  2.66842085E-06  1.95348343E-06  1.48762138E-06  9.71581017E-07  7.57492614E-07  6.00198121E-07  5.69047984E-07  5.57411454E-07  5.96327880E-07  5.77900153E-07  6.00816406E-07  6.42859220E-07  6.69885026E-07  5.94349785E-07  4.07697869E-05  4.07697869E-05  4.07697869E-05  4.07697869E-05  4.07697869E-05  4.07697869E-05  4.07697869E-05  1.75576659E-07  1.77945324E-07  1.92321565E-07  2.14445336E-07  3.32202035E-05  3.46198394E-05  3.14174104E-05  2.73780788E-05  5.86928472E-05  1.95885077E-04  1.36482282E-04  1.70093830E-04  1.82535281E-04  1.85960130E-06  1.74427441E-06  1.73185708E-06  1.84552709E-06  1.57222644E-06  1.60177069E-06  1.58379657E-06  1.81575217E-06  1.95826988E-06  2.15326577E-06  2.65370022E-06
      3.33669741E-05  2.82548626E-05  1.76102105E-07  1.25622563E-07  1.00554608E-07  8.13174097E-08  8.26120754E-08  1.08859759E-07  1.63325922E-07  2.46942989E-07  4.07697869E-05  4.07697869E-05  4.07697869E-05  4.07697869E-05  4.07697869E-05  1.59456226E-06  1.51984534E-06  9.03972614E-06  1.24804058E-06  1.45545334E-06  1.70630847E-06  1.98307157E-06  2.26123962E-06  2.68025133E-06  3.60367426E-06  4.40785698E-06  4.18737682E-06  3.39608982E-06  2.36201390E-06  1.84660666E-06  1.58475586E-06  1.34823983E-06  1.26886362E-05  3.19386963E-05  7.91392958E-05  1.01158526E-04  1.10510024E-04  1.14876522E-04  1.08753913E-04  1.00977995E-04  7.94550360E-05  7.52266133E-05  8.29203564E-05  8.44188835E-05  8.78699866E-05  1.11499539E-04  1.13194343E-04  4.85018209E-05  7.45484840E-07  5.29728368E-07  4.65115477E-07  4.33102372E-07  3.93618990E-07  4.42468178E-07  5.57464602E-07  7.67372057E-07  8.50689389E-07  9.42105885E-07  3.46279157E-05  3.02407752E-05  2.99528565E-05  4.91123355E-05  5.61289853E-05  6.79415971E-05  1.14919363E-04  1.28706364E-04  1.21134559E-04  1.02131286E-04  1.28222717E-04  1.19388511E-04  1.16365532E-04  1.48797248E-04  1.67156846E-04  1.54927780E-04  1.80506104E-04  1.49571890E-04  1.58598719E-04  1.73350621E-04  1.36244431E-04  1.19242475E-04  7.57115995E-05  5.23241833E-05  2.89662185E-05  2.15176642E-05  1.33709882E-05  1.30137068E-05  1.28486372E-05  1.51085369E-05  2.12987288E-05  2.41904636E-05  2.89675645E-05  1.75224559E-05  1.08653721E-05  6.58093040E-06  4.56149655E-06  3.60652484E-06  2.46997774E-06  1.93562300E-06  1.15085436E-06  8.82265738E-07  6.79481843E-07  6.05791172E-07  5.62921628E-07  8.02527356E-05  6.25370740E-05  5.06603865E-05  6.11893768E-07  6.05661228E-07  5.96291557E-07  5.55907150E-07  4.07697869E-05  4.07697869E-05  4.07697869E-05  4.07697869E-05  4.07697869E-05  1.43626536E-07  1.39941847E-07  1.25531642E-07  1.41815647E-07  2.68778564E-07  2.36128344E-07  4.15400422E-07  7.40779853E-07  7.15327988E-05  6.58654681E-05  1.08875705E-04  3.27291898E-04  4.19033808E-04  1.89995865E-06  1.79185167E-06  1.65275867E-06  1.68413897E-06  1.73128672E-06  1.58594344E-06  1.51270501E-06  1.40278087E-06  1.53502242E-06  1.68937640E-06  2.21311370E-06  2.83358713E-06
      7.19088493E-05  3.76329845E-05  3.48636422E-05  1.08999103E-07  8.82285036E-08  7.82561216E-08  9.76796741E-08  1.44316544E-07  2.20864592E-07  4.00567700E-07  7.31448779E-07  4.07697869E-05  4.07697869E-05  1.98493444E-06  1.85610634E-06  1.93832011E-06  1.47727792E-06  1.10217536E-06  9.60255989E-07  1.07332403E-06  1.46885736E-06  1.74543345E-06  2.23121901E-06  4.07697869E-05  4.07697869E-05  4.07697869E-05  4.07697869E-05  4.07697869E-05  4.07697869E-05  1.73836099E-06  1.66009818E-06  1.36488165E-06  9.96270228E-06  1.46047141E-05  5.03625743E-05  1.21540579E-04  1.30132408E-04  1.23183258E-04  1.21945806E-04  1.27706109E-04  1.05376945E-04  1.01710830E-04  1.06337255E-04  1.09948873E-04  1.12501744E-04  1.37828800E-04  1.32571076E-04  1.17676085E-04  5.78305808E-05  5.89624733E-07  4.50598918E-07  4.40097892E-07  4.82895075E-07  5.75154218E-07  7.23517701E-07  8.89897592E-07  5.26661170E-05  7.18252777E-05  4.99617490E-05  4.16033654E-05  3.98048505E-05  5.77152132E-05  5.46641131E-05  9.56132208E-05  1.14710449E-04  1.35502254E-04  1.37615090E-04  1.34372080E-04  1.18753014E-04  1.15404124E-04  1.15226234E-04  1.06892607E-04  1.30920671E-04  1.27746593E-04  1.22146448E-04  9.11222378E-05  1.02899503E-04  1.15905808E-04  1.54446840E-04  1.18313146E-04  8.66801420E-05  6.11108626E-05  4.13205889E-05  2.24588712E-05  1.85449480E-05  1.60568870E-05  1.61811658E-05  1.79932485E-05  2.64750670E-05  2.83479458E-05  2.75906004E-05  2.98082959E-05  3.20630279E-05  2.87161893E-05  2.95203372E-05  3.09577554E-05  2.78285243E-05  2.93689809E-05  1.41461578E-06  1.05075844E-06  7.23829089E-07  6.42306020E-07  8.63006135E-05  7.50520048E-05  5.36528605E-05  7.62372147E-05  4.03276463E-05  5.88104513E-07  5.52685947E-07  4.78091351E-07  4.58702857E-07  4.07697869E-05  4.07697869E-05  3.11878665E-07  2.35156492E-07  1.53613144E-07  1.30168303E-07  1.09173754E-07  2.04108730E-07  1.41079525E-07  1.52895907E-07  2.07989430E-07  4.36205568E-07  4.67861270E-07  4.93264281E-07  5.99822386E-07  2.53982900E-04  3.55929573E-04  4.49227809E-04  1.45679280E-06  1.39117594E-06  1.48891422E-06  1.76402716E-06  1.58981948E-06  1.34215156E-06  1.17460797E-06  1.23169775E-06  1.39095494E-06  1.79488893E-06  2.72225907E-06
      7.98095498E-05  8.78636201E-05  4.90544553E-05  8.68450343E-08  6.94323106E-08  7.76072255E-08  9.45322540E-08  1.50246535E-07  2.99578119E-07  5.09221877E-07  8.03711373E-07  1.45040883E-06  2.38212783E-06  2.98623104E-06  2.85379269E-06  2.35950301E-06  1.50579831E-06  9.64701030E-07  8.40721952E-07  1.00324201E-06  1.26632108E-06  4.07697869E-05  4.07697869E-05  4.07697869E-05  4.07697869E-05  4.07697869E-05  4.07697869E-05  4.07697869E-05  4.07697869E-05  4.07697869E-05  4.07697869E-05  1.18511377E-06  1.02674187E-06  1.15755824E-06  4.07697869E-05  4.07697869E-05  4.07697869E-05  1.25716950E-04  4.07697869E-05  4.07697869E-05  4.07697869E-05  4.07697869E-05  4.07697869E-05  1.44848644E-04  1.49163781E-04  1.79454917E-04  1.97855348E-04  1.91884334E-04  1.75376612E-04  1.04022380E-04  1.11573951E-04  5.47655361E-07  6.79328593E-07  8.16651436E-07  9.44643489E-07  4.98115769E-05  8.57981213E-05  6.49043795E-05  5.91636344E-05  3.98645680E-05  3.71770657E-05  5.18274428E-05  6.00950698E-05  8.15713647E-05  9.12916657E-05  1.04214567E-04  1.10500703E-04  9.66457010E-05  1.00437283E-04  1.06101019E-04  1.10501460E-04  1.15199226E-04  1.21941521E-04  1.14979855E-04  5.62892528E-05  5.17530316E-05  5.64557085E-05  6.20218998E-05  1.57320901E-04  1.33048990E-04  1.09561079E-04  6.10399875E-05  4.38124371E-05  2.00261638E-05  1.94240529E-05  2.84225043E-05  2.54073366E-05  3.20405488E-05  3.36342418E-05  3.69007867E-05  4.03827325E-05  5.59319633E-05  8.40789362E-05  3.86524189E-05  3.69535337E-05  3.89156448E-05  3.69337249E-05  3.95309798E-05  4.58872491E-05  5.42235794E-05  5.20343820E-05  6.14577002E-05  7.44372664E-05  7.06110441E-05  9.83912614E-05  7.34729110E-05  5.96330101E-05  4.98280656E-07  4.72617359E-07  4.94283142E-07  4.80809888E-07  4.77910817E-07  4.72516717E-07  3.84174484E-07  2.69248346E-07  1.71753499E-07  1.32352682E-07  9.14065694E-08  1.40565064E-07  3.06881702E-07  1.91227045E-07  1.38323415E-07  2.39838300E-07  1.28841776E-07  2.26089991E-08  2.20571668E-08  1.72283899E-06  1.80141706E-06  1.53964083E-06  1.23524069E-06  4.07697869E-05  4.07697869E-05  4.07697869E-05  1.39846111E-06  1.18736432E-06  1.13915303E-06  1.19291565E-06  1.26377518E-06  1.57633019E-06  2.22910967E-06
      1.14477385E-04  1.05091363E-04  9.56061340E-05  1.23029210E-07  1.21318791E-07  7.95949759E-08  1.00984678E-07  1.69134054E-07  3.32014423E-07  6.30798922E-07  1.06780783E-06  2.05128754E-06  3.38440168E-06  4.18525133E-06  4.03690956E-06  7.92545598E-06  8.25076222E-06  1.16492147E-05  1.06910047E-05  9.96489462E-07  4.07697869E-05  4.07697869E-05  4.07697869E-05  4.07697869E-05  4.07697869E-05  4.07697869E-05  4.07697869E-05  4.07697869E-05  4.07697869E-05  4.07697869E-05  4.07697869E-05  4.07697869E-05  4.07697869E-05  4.07697869E-05  4.07697869E-05  4.07697869E-05  4.07697869E-05  4.07697869E-05  4.07697869E-05  4.07697869E-05  4.07697869E-05  4.07697869E-05  4.07697869E-05  4.07697869E-05  4.07697869E-05  1.93763393E-04  2.14804400E-04  2.47227581E-04  2.63128750E-04  1.54672671E-04  1.39529162E-04  6.57613839E-07  8.13484291E-07  8.00549678E-05  6.01460051E-05  4.69935985E-05  6.37456687E-05  5.60998924E-05  5.59626351E-05  4.43743229E-05  3.63935542E-05  5.07252807E-05  5.31593796E-05  8.13086663E-05  8.82921158E-05  8.74755133E-05  1.01351623E-04  1.00703423E-04  1.03902290E-04  1.02009835E-04  6.81025776E-05  4.73828077E-05  5.06665965E-05  5.46325464E-05  1.36467270E-06  1.29416310E-06  1.24288397E-06  1.18726915E-04  1.26069426E-04  1.48345600E-04  1.19624587E-04  4.32611196E-05  3.18546954E-05  1.45651882E-06  2.26690599E-06  2.75400707E-05  2.92729528E-05  3.92460897E-05  5.28517303E-05  5.38587410E-05  6.78825818E-05  1.32226050E-04  1.19225486E-04  7.80838163E-05  6.97786818E-05  6.83073740E-05  6.38313941E-05  6.52688759E-05  3.70920716E-05  4.21028599E-05  4.20505239E-05  6.33155480E-07  5.75533886E-05  1.03429426E-04  9.43449631E-05  7.93581712E-05  6.72981259E-05  2.94111451E-05  4.63445929E-07  4.69899305E-07  4.22804646E-07  4.32061057E-07  4.84489476E-07  4.26293695E-07  3.28946498E-07  2.15492719E-07  1.48185720E-07  4.96625852E-08  3.61197401E-08  1.57341749E-08  1.01589990E-07  7.49706075E-08  3.07142365E-08  6.45797797E-08  1.74831047E-08  9.52980539E-09  4.07697869E-05  4.07697869E-05  4.07697869E-05  4.07697869E-05  4.07697869E-05  4.07697869E-05  4.07697869E-05  4.07697869E-05  4.07697869E-05  9.52392668E-07  9.91214620E-07  1.13692693E-06  1.39648262E-06  1.65390179E-06
      7.55229121E-05  1.15527539E-04  8.44142414E-05  1.06975385E-07  2.04220285E-07  1.31124835E-07  1.52803779E-07  1.99467820E-07  4.06949908E-07  7.80079120E-07  1.49349944E-06  2.86054069E-06  4.42140527E-06  7.61316051E-06  9.76976935E-06  1.10084293E-05  1.45075765E-05  1.94863514E-05  1.11562103E-05  1.12849659E-06  4.07697869E-05  4.07697869E-05  4.07697869E-05  4.07697869E-05  4.07697869E-05  4.07697869E-05  4.07697869E-05  4.07697869E-05  4.07697869E-05  4.07697869E-05  4.07697869E-05  4.07697869E-05  4.07697869E-05  4.07697869E-05  4.07697869E-05  4.07697869E-05  4.07697869E-05  4.07697869E-05  4.07697869E-05  4.07697869E-05  4.07697869E-05  4.07697869E-05  4.07697869E-05  4.07697869E-05  4.07697869E-05  2.19791182E-04  2.24525502E-04  2.56281171E-04  3.03699780E-04  1.76955291E-04  8.10031963E-07  1.43204685E-04  1.11273577E-04  1.23016143E-04  1.15314520E-04  5.47548661E-05  5.62572459E-05  4.74519547E-05  4.94843734E-05  4.13673515E-05  3.45680201E-05  4.99293310E-05  6.32421288E-05  6.95913186E-05  8.08354162E-05  7.24157653E-05  6.47976267E-05  7.50970648E-05  7.24764614E-05  5.48086609E-05  5.58114953E-05  9.30779322E-07  1.18819082E-06  1.27367105E-06  1.35989262E-06  1.38863686E-06  1.19103152E-06  1.12232931E-06  7.15841670E-05  1.23693186E-04  5.27490738E-05  1.17924048E-06  1.10254507E-06  1.40716963E-06  1.98469047E-06  2.74401282E-06  3.95898896E-05  6.86559360E-05  7.00518794E-05  9.67070446E-05  1.14717375E-04  1.65152087E-04  1.60276773E-04  1.01801321E-04  8.81415617E-05  8.22855291E-05  5.06903234E-05  4.64750483E-05  5.03679548E-05  2.50229295E-05  2.64905138E-05  3.06399343E-05  7.02778416E-05  7.70616680E-05  9.24070555E-05  9.30894603E-05  7.93681829E-05  6.57710189E-05  3.35316909E-05  3.96956210E-07  3.79834461E-07  3.97126570E-07  4.28739696E-07  3.56766918E-07  3.05605539E-07  2.36310612E-07  1.20493752E-07  4.64537990E-08  1.87595077E-08  1.97656682E-08  2.85456583E-08  2.97068485E-08  2.65970499E-08  5.86203974E-08  4.07697869E-05  4.07697869E-05  4.07697869E-05  4.07697869E-05  4.07697869E-05  4.07697869E-05  4.07697869E-05  4.07697869E-05  4.07697869E-05  4.07697869E-05  4.07697869E-05  8.25402992E-07  8.37813332E-07  8.80893765E-07  1.06676509E-06  1.11675467E-06
      6.11480646E-05  6.36147524E-05  7.98016554E-05  4.07642874E-05  2.23847920E-07  1.70812854E-07  1.04135900E-07  1.66319452E-07  3.67652859E-07  9.04904027E-07  1.73020965E-06  1.06287862E-05  9.21154060E-06  1.34929614E-05  1.62495580E-05  1.39303966E-05  1.71028387E-05  2.11019415E-05  2.45249739E-05  2.28830922E-05  4.07697869E-05  4.07697869E-05  4.07697869E-05  4.07697869E-05  4.07697869E-05  4.07697869E-05  4.07697869E-05  4.07697869E-05  4.07697869E-05  4.07697869E-05  4.07697869E-05  4.07697869E-05  4.07697869E-05  4.07697869E-05  4.07697869E-05  4.07697869E-05  4.07697869E-05  4.07697869E-05  4.07697869E-05  4.07697869E-05  4.07697869E-05  4.07697869E-05  4.07697869E-05  4.07697869E-05  4.07697869E-05  4.07697869E-05  7.31825480E-07  7.93875017E-07  3.44298023E-04  2.04097916E-04  2.12373823E-04  2.93091143E-04  1.07869651E-04  7.29308158E-05  7.42804405E-05  9.32315088E-05  7.86236415E-05  4.59013900E-05  4.69092156E-05  3.82618964E-05  3.96653377E-05  4.89659978E-05  5.34237661E-05  7.61777701E-05  8.75533296E-05  7.81637136E-05  7.47221638E-05  5.58373722E-05  2.75468192E-05  2.33922110E-05  2.62233516E-05  1.49714208E-06  1.57834450E-06  1.68000724E-06  1.55442262E-06  1.41177293E-06  1.34892980E-06  1.27804071E-06  6.85882478E-05  1.49603250E-06  1.40121904E-06  1.26850682E-06  1.12452233E-06  1.55031080E-06  1.83150041E-06  2.33349579E-06  3.63632103E-06  6.28926136E-05  1.36543313E-04  1.72591201E-04  1.39753756E-04  1.45251703E-04  1.28669300E-04  1.20230834E-04  1.05302548E-04  5.40494475E-05  4.90126295E-05  2.08162219E-05  1.88784688E-05  2.75151579E-05  2.77450599E-05  3.62460560E-05  2.78359512E-05  3.60116901E-05  8.91020536E-05  1.07653548E-04  1.39276366E-04  8.32207661E-05  6.83013423E-05  3.46942500E-07  3.31219923E-07  3.36103255E-07  3.91226138E-07  3.19270157E-07  2.72341623E-07  1.52289019E-07  1.16522116E-07  6.15107894E-08  2.65083457E-08  2.70958900E-08  3.77845915E-08  3.30558834E-08  3.14721049E-08  1.90654781E-08  4.07697869E-05  4.07697869E-05  4.07697869E-05  4.07697869E-05  4.07697869E-05  4.07697869E-05  4.07697869E-05  4.07697869E-05  4.07697869E-05  4.07697869E-05  4.07697869E-05  7.18349270E-07  7.15609985E-07  7.55377869E-07  8.47878312E-07  8.40702342E-07
      5.53278660E-05  5.34397368E-05  6.41550068E-05  1.39863687E-07  3.25890369E-07  1.81353542E-07  1.40490258E-07  2.00729019E-07  3.19104402E-07  8.61124533E-07  2.15396881E-06  1.07677752E-05  1.19430679E-05  1.68336319E-05  2.19089161E-05  2.09963491E-05  2.49772693E-05  2.92815166E-05  3.22427150E-05  2.96727794E-05  4.07697869E-05  4.07697869E-05  4.07697869E-05  4.07697869E-05  4.07697869E-05  4.07697869E-05  4.07697869E-05  4.07697869E-05  4.07697869E-05  4.07697869E-05  4.07697869E-05  4.07697869E-05  4.07697869E-05  4.07697869E-05  4.07697869E-05  4.07697869E-05  4.07697869E-05  4.07697869E-05  4.07697869E-05  4.07697869E-05  4.07697869E-05  4.07697869E-05  4.07697869E-05  4.07697869E-05  4.07697869E-05  4.07697869E-05  4.07697869E-05  8.96098754E-07  1.10924202E-06  2.20849703E-04  2.33348896E-04  2.37762710E-04  2.56134314E-04  1.81505748E-04  1.67628474E-04  8.85903137E-05  5.87650757E-05  4.68958388E-05  5.76156199E-05  4.20731594E-05  5.10688442E-05  5.08108387E-05  5.29060017E-05  6.93728143E-05  1.03469356E-04  8.75339683E-05  8.66405244E-05  4.69538827E-05  1.24260589E-06  1.55157204E-06  1.94556242E-06  2.22678568E-06  2.12653617E-06  2.20431048E-06  2.19814046E-06  2.11919314E-06  1.82745919E-06  1.22796223E-06  1.18368098E-06  1.18716002E-06  1.47313835E-06  1.29053058E-06  1.16473836E-06  1.44580054E-06  1.97933991E-06  2.37952054E-06  3.16589217E-06  1.27645326E-04  2.14491301E-04  1.86277379E-04  1.64460580E-04  1.57162038E-04  1.24638012E-04  9.25859858E-05  8.70191288E-05  6.68213979E-05  3.87778709E-05  2.54430088E-05  1.02960439E-05  1.52937646E-05  1.72450418E-05  1.52686007E-05  2.21309238E-05  3.20932195E-05  8.68593124E-05  1.15641909E-04  1.13234724E-04  5.32334088E-05  7.25651189E-05  3.62433602E-05  2.85979468E-07  4.60434385E-05  3.23388832E-07  2.26474214E-07  2.18445024E-07  1.45675301E-07  7.72353772E-08  9.13150302E-08  3.67466306E-08  4.03326084E-08  3.20759774E-08  2.94867970E-08  1.85541218E-08  3.03330090E-08  4.07697869E-05  4.07697869E-05  4.07697869E-05  4.07697869E-05  4.07697869E-05  4.07697869E-05  4.07697869E-05  4.07697869E-05  4.07697869E-05  4.07697869E-05  4.07697869E-05  7.35386493E-07  6.87660759E-07  6.43229839E-07  7.10217648E-07  7.41625172E-07
      7.32219632E-05  5.20530994E-05  2.78426432E-05  5.64150859E-08  6.86392596E-08  2.53263948E-07  1.52296167E-07  1.60559466E-07  3.42790941E-07  7.02784348E-07  1.70354122E-06  2.96942608E-06  1.02314161E-05  1.41968630E-05  2.85660935E-05  3.64868429E-05  3.46870038E-05  4.75350935E-05  4.59856019E-05  3.90825880E-05  4.07697869E-05  4.07697869E-05  4.07697869E-05  4.07697869E-05  4.07697869E-05  4.07697869E-05  4.07697869E-05  4.07697869E-05  4.07697869E-05  4.07697869E-05  4.07697869E-05  4.07697869E-05  4.07697869E-05  4.07697869E-05  4.07697869E-05  4.07697869E-05  4.07697869E-05  4.07697869E-05  4.07697869E-05  4.07697869E-05  4.07697869E-05  4.07697869E-05  4.07697869E-05  4.07697869E-05  4.07697869E-05  4.07697869E-05  4.07697869E-05  4.07697869E-05  4.07697869E-05  1.62355798E-06  1.61991261E-06  2.02221156E-04  1.86462014E-04  2.00170951E-04  1.50005726E-04  1.05866435E-04  6.58548088E-05  6.60221704E-05  5.77484025E-05  4.01463913E-05  4.60670708E-05  4.90259554E-05  5.15175634E-05  6.68107532E-05  8.56427432E-05  9.47005756E-05  7.40272590E-05  2.82635210E-05  1.70221711E-06  2.28931049E-06  2.79367828E-06  3.17041008E-06  3.33189746E-06  3.17550735E-06  3.10132236E-06  2.00633872E-06  1.25612951E-06  1.23568748E-06  1.10435610E-06  1.79071003E-06  1.17400612E-06  1.23978919E-06  1.23631071E-06  1.51467600E-06  1.88073182E-06  2.22765084E-06  2.90343519E-06  7.98579858E-05  1.85492041E-04  2.02356925E-04  1.41029494E-04  1.29887645E-04  1.01295940E-04  9.34785203E-05  8.42842419E-05  5.03739284E-05  2.66704556E-05  1.69445011E-05  6.26642668E-06  6.27895815E-06  6.62728507E-06  1.31058050E-06  1.84110831E-05  3.18150669E-05  5.14399071E-05  6.35492543E-05  6.38140846E-05  5.30731995E-05  4.20898505E-05  3.79777339E-05  3.90133719E-05  2.46471643E-07  2.61764995E-07  2.65429605E-07  1.72136041E-07  1.85960829E-07  1.34431005E-07  8.68728094E-08  1.07003551E-07  7.05426970E-08  7.68632233E-08  8.04827138E-08  2.65194213E-08  3.10825072E-08  4.07697869E-05  4.07697869E-05  4.07697869E-05  4.07697869E-05  4.07697869E-05  4.07697869E-05  4.07697869E-05  4.07697869E-05  4.07697869E-05  4.07697869E-05  4.07697869E-05  8.03806245E-07  7.40469432E-07  6.45729131E-07  5.89731485E-07  5.55506460E-07
      1.03920866E-04  8.97810387E-05  3.15731777E-05  6.78004284E-08  7.51018732E-08  6.98542451E-08  1.06571250E-07  1.29050861E-07  3.44282853E-07  7.76817956E-07  1.48988715E-06  2.77787080E-06  1.45080339E-05  2.16946410E-05  4.40788026E-05  5.69409167E-05  6.53920652E-05  6.31209114E-05  6.02410219E-05  4.07697869E-05  4.07697869E-05  4.07697869E-05  4.07697869E-05  4.07697869E-05  4.07697869E-05  4.07697869E-05  4.07697869E-05  4.07697869E-05  4.07697869E-05  4.07697869E-05  4.07697869E-05  4.07697869E-05  4.07697869E-05  4.07697869E-05  4.07697869E-05  4.07697869E-05  4.07697869E-05  4.07697869E-05  4.07697869E-05  4.07697869E-05  4.07697869E-05  4.07697869E-05  4.07697869E-05  4.07697869E-05  4.07697869E-05  4.07697869E-05  4.07697869E-05  4.07697869E-05  4.07697869E-05  4.07697869E-05  2.34447793E-06  3.17384342E-06  1.37447598E-04  1.16210227E-04  1.30802640E-04  9.90513581E-05  9.43238629E-05  7.17949806E-05  5.85187991E-05  4.49056934E-05  3.87077707E-05  3.82627659E-05  3.98291413E-05  5.74646365E-05  6.95205963E-05  5.09774000E-05  4.70982523E-05  1.54258692E-06  2.17651836E-06  3.22994902E-06  4.19462731E-06  4.60354158E-06  4.60679621E-06  4.78906531E-06  4.68479993E-06  2.88172032E-06  2.30876117E-06  2.20703805E-06  1.65634538E-06  2.04900812E-06  1.15974001E-06  7.35170318E-07  1.04138724E-06  1.24153780E-06  1.81654309E-06  2.02520641E-06  2.66899679E-06  8.33576923E-05  1.23575446E-04  1.45481637E-04  1.06539650E-04  9.22632607E-05  7.79286347E-05  6.87257125E-05  5.88560288E-05  4.85543314E-05  1.92748685E-05  6.89223043E-06  4.94781898E-06  5.27563316E-06  1.56787178E-06  1.74515696E-06  1.65767744E-06  1.38455130E-06  1.25344388E-06  1.08719587E-06  7.10798361E-07  4.90856735E-07  4.44427169E-05  3.00089340E-07  3.10880750E-07  3.51497079E-07  3.16421165E-07  3.75569726E-07  2.71745591E-07  2.94254676E-07  2.14667537E-07  1.29376446E-07  1.23566494E-07  7.64268577E-08  9.69453637E-08  6.86629562E-08  5.40996261E-08  3.74005786E-08  8.14424794E-08  4.07697869E-05  4.07697869E-05  4.07697869E-05  4.07697869E-05  4.07697869E-05  4.07697869E-05  4.07697869E-05  4.07697869E-05  4.07697869E-05  4.07697869E-05  1.09294797E-06  8.41048177E-07  7.59653915E-07  5.99129692E-07  4.43539108E-07
      1.38907868E-04  1.01183767E-04  6.99554657E-05  8.79974991E-08  9.07747477E-08  7.80191201E-08  8.06685421E-08  1.40631002E-07  2.79351070E-07  6.56278644E-07  1.46054913E-06  1.16084384E-05  2.79546330E-05  3.61281163E-05  5.85499511E-05  8.08228942E-05  9.75305011E-05  9.60123143E-05  8.26226751E-05  4.07697869E-05  4.07697869E-05  4.07697869E-05  4.07697869E-05  4.07697869E-05  4.07697869E-05  4.07697869E-05  4.07697869E-05  4.07697869E-05  4.07697869E-05  4.07697869E-05  4.07697869E-05  4.07697869E-05  4.07697869E-05  4.07697869E-05  4.07697869E-05  4.07697869E-05  4.07697869E-05  4.07697869E-05  4.07697869E-05  4.07697869E-05  4.07697869E-05  4.07697869E-05  4.07697869E-05  4.07697869E-05  4.07697869E-05  4.07697869E-05  4.07697869E-05  4.07697869E-05  4.07697869E-05  4.07697869E-05  4.07697869E-05  4.19777552E-06  4.04046295E-06  8.88626309E-05  7.75819790E-05  8.64722606E-05  4.36951632E-05  5.63464237E-05  5.94068551E-05  5.21890906E-05  3.21768566E-05  2.73785099E-05  2.64151768E-05  4.04841921E-05  4.79872651E-05  2.73046808E-05  1.07538528E-06  1.90872538E-06  2.86188924E-06  4.53899520E-06  5.68988980E-06  5.97169992E-06  6.37979792E-06  7.24028541E-06  6.68280518E-06  2.92671234E-06  1.60629213E-06  2.78706989E-06  1.87573289E-06  1.44994522E-06  1.23948064E-06  8.40941254E-07  1.15864555E-06  1.27127055E-06  1.66148720E-06  1.91749632E-06  2.86089071E-05  6.20865467E-05  8.87421847E-05  1.05201776E-04  8.46410258E-05  7.10523673E-05  5.87698669E-05  5.34813880E-05  5.11960898E-05  4.26007427E-05  2.21521186E-05  7.52556787E-07  4.73294722E-06  5.06394417E-06  1.78904315E-06  2.29434363E-06  2.44924036E-06  2.12882264E-06  1.72596071E-06  1.34749928E-06  9.52087476E-07  6.50487436E-07  4.73441673E-07  3.82473530E-07  3.86980844E-07  4.39027843E-07  5.40414305E-07  7.32240096E-07  5.52386609E-07  5.93368554E-07  3.23970113E-07  1.53366429E-07  1.69338236E-07  9.37827451E-08  1.11710904E-07  1.36932528E-07  5.93132334E-08  6.92257416E-08  8.10047851E-08  1.36568104E-07  4.07697869E-05  4.07697869E-05  4.07697869E-05  4.07697869E-05  4.07697869E-05  4.07697869E-05  4.07697869E-05  4.07697869E-05  4.07697869E-05  1.38411417E-06  1.12395696E-06  7.71178975E-07  6.84899874E-07  4.78577590E-07