# File generated by Flopy version 3.9.2 on 06/10/2025 at 16:30:08.
BEGIN options
  SAVE_FLOWS
  SAVE_SPECIFIC_DISCHARGE
  SAVE_SATURATION
END options

BEGIN griddata
  icelltype
    CONSTANT  0
  k  LAYERED
    INTERNAL  FACTOR  1.0
      4.99044745E-07  4.35797887E-07  4.71107342E-07  5.56583132E-07  5.91079697E-07  5.87412558E-05  5.87412558E-05  5.87412558E-05  5.87412558E-05  5.87412558E-05  5.87412558E-05  5.87412558E-05  5.87412558E-05  5.87412558E-05  5.87412558E-05  5.87412558E-05  1.62200433E-06  4.63763916E-09  3.29139027E-07  1.06652669E-06  6.73958311E-07  2.65422068E-06  3.61531511E-06  5.21329184E-06  7.27951738E-06  7.89320620E-06  7.16358545E-06  6.40424150E-06  5.80327287E-06  4.99682392E-06  4.84150405E-06  3.04556670E-06  2.10291978E-06  1.55922532E-06  7.82955249E-05  7.17417352E-05  1.20342207E-04  1.27407839E-04  1.25242994E-04  9.77764939E-05  9.30372116E-05  8.84875626E-05  4.03481608E-05  3.96162832E-05  1.90916398E-06  1.74920797E-06  1.77174059E-06  1.80359586E-06  1.84637338E-06  1.82000758E-06  1.75216735E-06  5.87412558E-05  5.87412558E-05  5.87412558E-05  5.87412558E-05  5.87412558E-05  1.10851636E-06  6.60461865E-07  4.63265593E-07  4.31528633E-07  3.97889920E-07  4.07548811E-07  2.47008018E-07  2.14413490E-07  2.13913097E-07  1.79371796E-07  2.48880895E-07  1.61420274E-07  1.18848583E-07  8.48963779E-08  5.37293587E-08  4.90534191E-08  6.12149194E-08  8.08684746E-08  1.10756048E-07  1.23869853E-07  9.09947246E-08  1.78708324E-05  1.30715835E-05  3.60522426E-05  5.54902726E-05  6.86820276E-05  1.12845308E-04  1.42564953E-04  1.76282105E-04  2.70183402E-04  3.52257077E-04  4.74994042E-04  5.31157246E-04  4.42741206E-04  3.04065907E-04  2.32561113E-04  1.16925185E-04  1.37522584E-04  1.02068101E-04  8.56345141E-05  1.24120765E-04  8.00689886E-05  8.59477805E-05  7.64680444E-05  9.57201482E-05  8.14439118E-05  1.11454756E-04  9.64163046E-05  7.92132923E-05  6.34217504E-05  5.05119642E-05  3.84259620E-05  5.87412558E-05  5.87412558E-05  5.87412558E-05  5.87412558E-05  5.87412558E-05  5.87412558E-05  5.87412558E-05  5.87412558E-05  3.47615833E-06  4.64062396E-06  5.14772864E-06  5.36819925E-06  3.88768558E-06  2.92817822E-06  2.07123139E-06  1.60557613E-06  1.20224729E-06  1.03667571E-06  8.02717125E-07  6.96707616E-07  5.12612587E-07  4.87693171E-07  4.91088997E-07  5.12512997E-07  5.56522764E-07  5.16924445E-07  5.59010971E-07  5.90904449E-07  4.89683714E-07  2.32451130E-05  3.57103454E-05  5.67113602E-05
      8.90281228E-07  7.28886164E-07  7.10778011E-07  7.79583274E-07  8.72447458E-07  1.01058174E-06  5.87412558E-05  5.87412558E-05  5.87412558E-05  5.87412558E-05  5.87412558E-05  5.87412558E-05  5.87412558E-05  5.87412558E-05  5.87412558E-05  5.87412558E-05  1.22611584E-06  5.28384403E-09  5.27544941E-09  1.44107798E-06  2.80596140E-07  1.05504012E-06  4.18467744E-06  5.60923763E-06  7.09871301E-06  8.42624468E-06  7.79962647E-06  7.54197390E-06  6.63537230E-06  5.83184283E-06  5.16716773E-06  3.47226432E-06  2.31679837E-06  2.72427369E-05  4.53804096E-05  4.80468552E-05  8.23511728E-05  9.43084378E-05  8.30983772E-05  5.51258490E-05  5.20151043E-05  5.38638560E-05  4.67726095E-05  4.46679005E-05  2.06126492E-06  1.97380700E-06  2.04884805E-06  4.44932484E-05  1.98014595E-06  2.05033939E-06  2.19540470E-06  2.01654029E-06  1.93699680E-06  1.64835603E-06  1.33259346E-06  1.20654738E-06  1.00702084E-06  8.33604588E-07  6.46581896E-07  6.60493185E-07  6.30814327E-07  6.97541338E-07  4.55936572E-07  3.73897308E-07  3.80441406E-07  3.09419107E-07  1.98495670E-07  1.65726661E-07  1.25351065E-07  6.70526887E-08  7.13457524E-08  5.53820669E-08  7.04045391E-08  5.56583863E-08  5.81972763E-08  6.94168421E-08  1.34039226E-07  1.53939181E-05  1.09709581E-05  3.22358137E-05  4.43417885E-05  6.35984106E-05  9.00190134E-05  1.10208392E-04  1.48589374E-04  2.26582852E-04  2.42963622E-04  3.39428283E-04  3.99635086E-04  3.69684538E-04  2.81913293E-04  2.78677122E-04  2.22812800E-04  1.26427243E-04  1.57273025E-04  1.65156278E-04  1.48548424E-04  1.24436119E-04  7.90111953E-05  7.89719707E-05  6.95799099E-05  9.31953255E-05  1.20365294E-04  1.15614195E-04  8.88272480E-05  6.08932314E-05  4.96957400E-05  4.15522300E-05  3.51429990E-05  5.87412558E-05  5.87412558E-05  5.87412558E-05  5.87412558E-05  5.87412558E-05  5.87412558E-05  5.87412558E-05  3.17705098E-06  3.70033558E-06  4.00536510E-06  4.22448738E-06  3.50114351E-06  2.92381901E-06  2.18402079E-06  1.67329995E-06  1.29014279E-06  1.15889054E-06  9.09995549E-07  7.48104355E-07  6.69493033E-07  5.73409238E-07  5.32761646E-07  5.47998695E-07  5.22443145E-07  4.87442549E-07  5.95600795E-07  6.35485094E-07  5.41361203E-07  1.78057271E-05  2.95300360E-05  5.28868550E-05
      9.64258379E-06  1.19250240E-06  1.16216677E-06  1.13593205E-06  1.09302698E-06  1.44882870E-06  1.52927953E-06  1.53800704E-06  5.87412558E-05  5.87412558E-05  5.87412558E-05  5.87412558E-05  5.87412558E-05  5.87412558E-05  5.87412558E-05  5.87412558E-05  3.41306446E-07  9.17645991E-07  1.06804237E-06  3.87786258E-07  1.05153731E-06  1.39309657E-06  2.46741888E-06  4.90605817E-06  6.75541742E-06  7.98131532E-06  7.80779192E-06  8.22654874E-06  8.43724592E-06  6.23534515E-06  5.28411192E-06  3.74465708E-06  2.93100243E-06  2.55917839E-05  3.07191985E-05  4.87923535E-05  5.09708589E-05  3.56158889E-05  3.30834700E-05  1.02520164E-06  1.28970748E-06  4.64620753E-05  4.25255166E-05  4.00078752E-05  2.00897375E-06  2.19575099E-06  2.09005384E-06  2.22433937E-06  2.56664816E-06  2.85393594E-06  3.13645569E-06  2.76311812E-06  2.29745933E-06  1.65735332E-06  1.22640176E-06  1.19865854E-06  1.11645465E-06  9.36363506E-07  8.51778907E-07  8.91681566E-07  9.13507392E-07  9.91728484E-07  7.85413135E-07  6.47201773E-07  5.71401074E-07  4.72784563E-07  2.87859422E-07  1.57494128E-07  7.85809320E-08  6.20020941E-08  4.45506423E-08  3.03423846E-08  3.49288669E-08  2.94824538E-08  4.25861444E-08  5.18769170E-08  5.90004525E-08  9.66734959E-08  9.43716168E-06  2.76609462E-05  4.16509029E-05  4.87950747E-05  6.65697080E-05  8.94851473E-05  1.23020698E-04  1.86690901E-04  2.39587855E-04  2.90149997E-04  3.38289945E-04  3.36003548E-04  2.78894586E-04  2.48586672E-04  2.05492324E-04  1.86289792E-04  2.01718547E-04  2.48613855E-04  2.24243078E-04  1.35976370E-04  1.14958500E-04  9.62987033E-05  6.33523669E-05  9.50601243E-05  8.93745819E-05  1.18632262E-04  9.61272453E-05  6.90138550E-05  5.55342740E-05  4.96594039E-05  3.70878770E-05  5.87412558E-05  5.87412558E-05  5.87412558E-05  5.87412558E-05  5.87412558E-05  5.87412558E-05  5.87412558E-05  2.58568843E-06  3.07270511E-06  3.28018814E-06  3.35188179E-06  2.91890024E-06  2.42477290E-06  2.23435541E-06  1.71782449E-06  1.28267914E-06  1.16778244E-06  9.82129563E-07  7.66760820E-07  7.32359695E-07  7.15861006E-07  5.86933425E-07  5.53467316E-07  5.16031889E-07  6.01289003E-07  7.10640961E-07  6.94528467E-07  1.89491311E-05  1.77280526E-05  2.83553618E-05  5.16309156E-05
      2.34308595E-06  1.98855901E-06  1.79222445E-06  1.74461320E-06  1.58179591E-06  1.85127499E-06  1.76971434E-06  1.69074849E-06  1.29474017E-06  8.59901547E-07  5.87412558E-05  5.87412558E-05  5.87412558E-05  5.87412558E-05  5.87412558E-05  5.69825147E-07  5.36046286E-07  5.00709461E-07  3.32925651E-07  7.48227990E-07  8.62661011E-07  2.34798677E-06  3.48052663E-06  4.58558588E-06  6.31417788E-06  7.53357790E-06  6.79092182E-06  8.10434813E-06  7.51872858E-06  6.18659851E-06  5.45741477E-06  4.37251174E-06  3.43323359E-06  1.53845103E-05  2.26616839E-06  2.11932256E-05  2.40796380E-05  1.28441491E-06  9.12917869E-07  7.52107326E-07  8.35124979E-07  1.07499784E-06  1.18466869E-06  1.40506688E-06  1.73553542E-06  2.13278713E-06  2.22111225E-06  2.37180029E-06  2.71202634E-06  3.21211110E-06  3.14597355E-06  3.04494756E-06  2.40450572E-06  1.70203339E-06  1.30413093E-06  1.24860946E-06  1.01776857E-06  1.04436504E-06  1.11017312E-06  1.34949983E-06  1.61364983E-06  1.85972681E-06  1.42817737E-06  1.13124929E-06  8.51859738E-07  5.45396063E-07  4.09922450E-07  2.48935208E-07  1.13983063E-07  7.80695473E-08  5.23917620E-08  3.11803383E-08  2.91004856E-08  2.36958169E-08  2.97162988E-08  3.41989157E-08  3.21084492E-08  7.94148889E-08  6.05484374E-08  1.49298367E-05  2.34875242E-05  3.92009570E-05  6.07452712E-05  8.85255213E-05  1.31120818E-04  1.88425111E-04  2.07358913E-04  2.24620817E-04  2.50451703E-04  2.69239215E-04  2.05236269E-04  2.19067719E-04  2.02554700E-04  1.81606083E-04  1.97516478E-04  1.69358987E-04  1.80325631E-04  1.45715239E-04  1.04491213E-04  9.54126008E-05  9.08836591E-05  9.41905892E-05  9.45394422E-05  1.19507007E-04  1.03612445E-04  7.99478221E-05  6.72059541E-05  6.95534909E-05  5.78527615E-05  4.41865777E-05  5.87412558E-05  5.87412558E-05  5.87412558E-05  5.87412558E-05  5.87412558E-05  1.60941977E-06  1.92817970E-06  2.24619907E-06  2.31539184E-06  2.27186842E-06  2.13360727E-06  1.77554887E-06  1.49275218E-06  1.48271340E-06  1.35633582E-06  1.21925871E-06  1.13692090E-06  8.74465286E-07  9.50076640E-07  8.97215500E-07  7.68854989E-07  6.81656843E-07  6.63619062E-07  8.19915726E-07  9.77258196E-07  2.25121021E-05  2.16372955E-05  2.17068937E-05  2.92889454E-05  4.13283888E-05
      9.12693304E-06  2.51896154E-06  2.37824247E-06  2.31697550E-06  1.96937276E-06  1.75894422E-06  1.52997609E-06  1.38029066E-06  1.06252492E-06  7.38511346E-07  5.04953448E-07  5.87412558E-05  5.87412558E-05  3.66747599E-07  4.02089228E-07  1.86609853E-07  4.42526925E-07  4.88720218E-07  5.80996357E-07  6.78946151E-07  1.42398903E-06  1.96498308E-06  3.07976302E-06  5.87412558E-05  5.87412558E-05  5.87412558E-05  5.87412558E-05  5.87412558E-05  5.87412558E-05  5.54413782E-06  5.28889950E-06  3.93531991E-06  3.61110938E-06  3.14826866E-06  3.27342468E-06  3.01129808E-06  2.11985321E-06  1.44132275E-06  9.96688527E-07  7.31284956E-07  7.68285872E-07  8.88623163E-07  9.74068826E-07  1.24236726E-06  1.49606808E-06  1.92469406E-06  1.97138979E-06  2.18438890E-06  2.56949625E-06  2.78445100E-06  3.08586755E-06  2.53882013E-06  1.91925278E-06  1.54841916E-06  1.29884575E-06  1.20657364E-06  1.09592281E-06  1.19328945E-06  1.35959408E-06  1.67897088E-06  2.03591753E-06  2.16681519E-06  1.77644176E-06  1.18809248E-06  1.01133071E-06  7.44750366E-07  5.01042564E-07  2.89995796E-07  1.13730792E-07  6.73667202E-08  4.90455250E-08  3.58642680E-08  2.73635354E-08  3.43178925E-08  3.61265506E-08  4.24108819E-08  4.00453999E-08  6.35474748E-08  8.53252368E-06  6.88603950E-06  1.37481220E-05  2.91877677E-05  6.54064133E-05  8.02274153E-05  1.54752270E-04  1.51748158E-04  1.68239465E-04  1.67530132E-04  1.72179120E-04  1.85168683E-04  1.85751313E-04  1.62455486E-04  1.39894139E-04  1.38038493E-04  1.61692617E-04  1.63063858E-04  1.76780872E-04  1.56911599E-04  1.56114416E-04  1.15391267E-04  1.13375630E-04  1.18197786E-04  1.35222115E-04  1.27544816E-04  1.25603241E-04  9.93089852E-05  8.88704890E-05  9.18412406E-05  8.11548016E-05  6.24081513E-05  5.27947741E-05  5.87412558E-05  5.87412558E-05  1.18286346E-06  1.07899643E-06  1.12042437E-06  1.17453578E-06  1.27507519E-06  1.38564963E-06  1.42273745E-06  1.41043574E-06  1.47197318E-06  1.39802239E-06  1.43390173E-06  1.55542750E-06  1.43672241E-06  1.22697702E-06  9.51880111E-07  1.08930863E-06  1.09527002E-06  1.05502897E-06  9.28900988E-07  8.65091920E-07  9.90761691E-07  1.41090031E-05  2.46313430E-05  2.60095821E-05  2.62710309E-05  3.51685048E-05  3.84825653E-05
      1.69597624E-05  3.03216962E-06  3.04234572E-06  2.13131761E-06  1.69176690E-06  1.38371001E-06  1.05253207E-06  9.43758721E-07  1.06017046E-06  4.96131463E-07  5.43073043E-07  4.18913345E-07  3.60191791E-07  3.85000362E-07  2.71880481E-07  2.80774373E-07  3.98936805E-07  3.98874278E-07  3.86167073E-07  7.88207899E-07  1.20943355E-06  5.87412558E-05  5.87412558E-05  5.87412558E-05  5.87412558E-05  5.87412558E-05  5.87412558E-05  5.87412558E-05  5.87412558E-05  5.87412558E-05  5.87412558E-05  4.59672901E-06  4.62720755E-06  4.91245373E-06  5.87412558E-05  5.87412558E-05  5.87412558E-05  1.54180952E-06  5.87412558E-05  5.87412558E-05  5.87412558E-05  5.87412558E-05  5.87412558E-05  1.07812014E-06  1.18820162E-06  1.47377534E-06  1.69750115E-06  1.65890458E-06  1.83605971E-06  1.99531769E-06  2.11451606E-06  1.98437306E-06  1.55596160E-06  1.37240499E-06  1.13330043E-06  1.23518362E-06  1.27839212E-06  1.30829517E-06  5.68965661E-05  1.84877683E-06  2.30301771E-06  2.26455836E-06  1.85396948E-06  1.54528789E-06  1.36389099E-06  8.38246535E-07  5.97641076E-07  2.92045769E-07  2.17204345E-07  7.44754516E-08  5.63129063E-08  2.72085110E-08  4.41143193E-08  3.11919415E-08  5.24737658E-08  5.54343735E-08  6.42965077E-08  6.04989125E-08  8.35461123E-08  6.99921020E-06  1.31477645E-05  2.81892480E-05  7.13882691E-05  9.14255725E-05  1.30504224E-04  1.96297959E-04  2.02467083E-04  1.68447077E-04  1.58833369E-04  1.34340298E-04  1.42106292E-04  1.20026671E-04  1.34358503E-04  1.38177449E-04  1.69465828E-04  1.81030409E-04  1.77992435E-04  1.74917135E-04  1.60659605E-04  1.70304862E-04  1.85709185E-04  1.36675226E-04  1.26158702E-04  1.67747741E-04  1.62200100E-04  9.62728373E-05  7.77011956E-05  7.55328656E-05  9.09054288E-05  6.92155081E-05  3.23427012E-05  1.18952403E-06  8.38000972E-07  7.20006369E-07  7.58028705E-07  7.39493487E-07  7.47927118E-07  8.00252849E-07  8.06489595E-07  8.82479810E-07  8.64342894E-07  1.05662969E-06  1.16265608E-06  1.36616018E-06  1.89777279E-06  1.91905224E-06  1.59612648E-06  1.37759491E-06  1.36478468E-06  1.39072847E-06  5.87412558E-05  5.87412558E-05  5.87412558E-05  1.37224185E-06  1.48290394E-06  2.18252753E-05  2.36996784E-05  2.50974263E-05  3.31585361E-05  3.50083828E-05
      2.85533552E-05  1.05561712E-05  3.02676835E-06  1.97655618E-06  1.62014510E-06  1.50691562E-06  1.16192746E-06  7.73562533E-07  7.76395495E-07  6.79287496E-07  4.53444954E-07  5.26650922E-07  2.48125758E-07  2.40160119E-07  2.18008765E-07  1.90172628E-07  2.69676860E-07  4.35598309E-07  6.04941420E-07  6.12579981E-07  5.87412558E-05  5.87412558E-05  5.87412558E-05  5.87412558E-05  5.87412558E-05  5.87412558E-05  5.87412558E-05  5.87412558E-05  5.87412558E-05  5.87412558E-05  5.87412558E-05  5.87412558E-05  5.87412558E-05  5.87412558E-05  5.87412558E-05  5.87412558E-05  5.87412558E-05  5.87412558E-05  5.87412558E-05  5.87412558E-05  5.87412558E-05  5.87412558E-05  5.87412558E-05  5.87412558E-05  5.87412558E-05  9.78380058E-07  1.21675112E-06  1.26785972E-06  1.53965266E-06  1.80367942E-06  1.85855242E-06  1.60609113E-06  1.29074249E-06  1.32121011E-06  1.17955460E-06  1.31472916E-06  1.38269547E-06  1.50661606E-06  5.10708924E-05  4.66459205E-05  1.79709014E-06  1.70942303E-06  1.74217291E-06  1.33701280E-06  1.25925976E-06  8.47996205E-07  6.42060058E-07  4.35764207E-07  2.70900898E-07  1.03410002E-07  1.08220233E-08  1.80913933E-08  3.72240585E-08  7.11403843E-08  9.30178530E-08  6.39089848E-08  9.76508261E-08  6.15995859E-08  9.57506199E-06  6.21685740E-06  1.30904937E-05  2.97184106E-05  7.27969236E-05  1.07000247E-04  1.47953368E-04  1.55325688E-04  1.78728253E-04  1.42917328E-04  1.27657811E-04  1.39470838E-04  1.19310607E-04  1.04904211E-04  1.16568015E-04  1.40510121E-04  1.60682292E-04  1.68104903E-04  1.85077966E-04  1.86625621E-04  1.96372130E-04  1.87979895E-04  2.18885019E-04  2.27539422E-04  1.67410035E-04  1.70593295E-04  1.53124362E-04  1.12855494E-04  9.33910997E-05  8.39366840E-05  7.67808524E-05  5.99426094E-05  2.96059297E-05  2.36344622E-05  6.79850189E-07  5.38834058E-07  5.08962046E-07  4.64639243E-07  4.92912989E-07  5.29501676E-07  5.71967121E-07  5.89856199E-07  6.36375944E-07  7.78683727E-07  9.33533443E-07  1.16717081E-06  1.70145950E-06  1.87243427E-06  5.87412558E-05  5.87412558E-05  5.87412558E-05  5.87412558E-05  5.87412558E-05  5.87412558E-05  5.87412558E-05  5.87412558E-05  5.87412558E-05  1.84724213E-05  2.03487980E-05  2.51457441E-05  2.89439849E-05  3.19543069E-05
      6.19079656E-05  2.63567872E-05  2.65941480E-06  1.56724727E-05  1.58778712E-05  3.76479002E-05  8.70837312E-07  7.60962394E-07  6.12060944E-07  6.79185064E-07  3.94123163E-07  3.64387205E-07  3.75640298E-07  2.83440301E-07  3.22711770E-07  3.08110401E-07  3.80859404E-07  4.77839251E-07  6.14247256E-07  5.62399975E-07  5.87412558E-05  5.87412558E-05  5.87412558E-05  5.87412558E-05  5.87412558E-05  5.87412558E-05  5.87412558E-05  5.87412558E-05  5.87412558E-05  5.87412558E-05  5.87412558E-05  5.87412558E-05  5.87412558E-05  5.87412558E-05  5.87412558E-05  5.87412558E-05  5.87412558E-05  5.87412558E-05  5.87412558E-05  5.87412558E-05  5.87412558E-05  5.87412558E-05  5.87412558E-05  5.87412558E-05  5.87412558E-05  7.78716469E-07  9.50132460E-07  1.03050377E-06  1.20957486E-06  1.51739857E-06  1.93907385E-06  1.63226071E-06  1.36737606E-06  1.38739051E-06  1.43359512E-06  1.46135199E-06  5.72956851E-05  1.56430053E-06  4.19833996E-05  1.64946198E-06  1.60081299E-06  1.29820626E-06  1.16450940E-06  1.36390190E-06  1.13485385E-06  1.14586248E-06  8.08910499E-07  4.72793232E-07  3.75412043E-07  1.79608037E-07  1.69337426E-07  5.74758765E-08  4.74178528E-08  1.37091959E-07  1.59174959E-07  1.18005509E-07  6.60158506E-08  6.78671270E-08  9.79334436E-06  1.32279019E-05  1.60939089E-05  2.75587827E-05  6.75035626E-05  8.99415681E-05  1.05722131E-04  1.28582542E-04  1.30739238E-04  1.42524645E-04  1.21729994E-04  1.10009227E-04  1.16532210E-04  1.08673710E-04  1.27285515E-04  1.30496817E-04  1.46977458E-04  1.56931739E-04  1.85768353E-04  2.00654584E-04  2.26350458E-04  2.10301863E-04  2.41393835E-04  2.40130146E-04  2.09483973E-04  1.93761385E-04  1.59125266E-04  1.25704246E-04  8.50768411E-05  8.59386637E-05  6.59846264E-05  6.54618343E-05  8.70584870E-07  6.72852366E-07  5.60479918E-07  4.73030553E-07  4.18362418E-07  3.59272349E-07  3.60440765E-07  3.44493344E-07  4.01967412E-07  4.61178018E-07  5.21040363E-07  6.49555147E-07  7.76062450E-07  9.49502578E-07  5.87412558E-05  5.87412558E-05  5.87412558E-05  5.87412558E-05  5.87412558E-05  5.87412558E-05  5.87412558E-05  5.87412558E-05  5.87412558E-05  5.87412558E-05  5.87412558E-05  1.66498667E-05  1.72339332E-05  1.80311708E-05  2.28921544E-05  2.64417067E-05
      7.97294269E-05  4.63298638E-05  2.01118073E-05  2.06071873E-05  2.11280567E-05  2.06292116E-05  1.81958421E-05  5.93253787E-07  6.28488522E-07  5.44142154E-07  5.42236307E-07  3.03187278E-07  3.34993899E-07  2.63276576E-07  2.93903838E-07  5.52311405E-07  5.27160694E-07  7.03970954E-07  5.83384349E-07  5.22067580E-07  5.87412558E-05  5.87412558E-05  5.87412558E-05  5.87412558E-05  5.87412558E-05  5.87412558E-05  5.87412558E-05  5.87412558E-05  5.87412558E-05  5.87412558E-05  5.87412558E-05  5.87412558E-05  5.87412558E-05  5.87412558E-05  5.87412558E-05  5.87412558E-05  5.87412558E-05  5.87412558E-05  5.87412558E-05  5.87412558E-05  5.87412558E-05  5.87412558E-05  5.87412558E-05  5.87412558E-05  5.87412558E-05  5.87412558E-05  7.96809161E-07  8.51429320E-07  1.07060316E-06  1.27181488E-06  1.82665099E-06  1.74049057E-06  1.44236446E-06  1.46410196E-06  1.67944154E-06  1.66329778E-06  4.55001391E-05  1.61989612E-06  4.56801026E-05  1.51410984E-06  1.33454137E-06  1.37030815E-06  1.27179487E-06  1.35046241E-06  1.48004335E-06  1.08418635E-06  1.03396019E-06  9.23957941E-07  4.87658781E-07  4.05190065E-07  1.85754260E-07  2.37271976E-07  7.52305382E-08  7.63093837E-08  2.89375919E-07  1.76259249E-07  1.31457355E-07  1.05598779E-07  1.38450815E-07  1.93277010E-05  2.66877123E-05  2.66481002E-05  5.31330297E-05  6.77106291E-05  7.60823386E-05  8.15188178E-05  8.47160918E-05  9.72310081E-05  9.58852615E-05  7.98162437E-05  9.31781542E-05  9.91882771E-05  1.10684239E-04  1.34194153E-04  1.50603766E-04  1.71997759E-04  1.89141138E-04  2.04296666E-04  2.12514045E-04  2.20336180E-04  2.32064514E-04  2.57407373E-04  2.64110160E-04  2.39996545E-04  1.58636685E-04  8.17024775E-05  9.34484269E-05  6.17767801E-05  6.47534616E-05  4.14081078E-05  3.70672788E-05  4.97614508E-07  4.20478273E-07  3.96108135E-07  3.17737829E-07  2.76187791E-07  2.54829246E-07  2.37566809E-07  2.67636096E-07  3.35733830E-07  3.75158521E-07  5.70074576E-07  7.95697645E-07  9.56247504E-07  5.87412558E-05  5.87412558E-05  5.87412558E-05  5.87412558E-05  5.87412558E-05  5.87412558E-05  5.87412558E-05  5.87412558E-05  5.87412558E-05  5.87412558E-05  5.87412558E-05  5.87253396E-07  1.26503064E-05  1.34991160E-05  1.78550908E-05  2.30274691E-05
      1.02287719E-04  8.27877666E-05  4.33099885E-05  4.38139286E-05  2.66206662E-05  2.52234622E-05  2.33922055E-05  2.03040108E-05  5.93352695E-07  4.20511384E-07  5.52334086E-07  5.41527811E-07  5.82182622E-07  5.15316970E-07  5.47773084E-07  4.77930826E-07  7.56219379E-07  6.99027680E-07  5.13877808E-07  4.14353565E-07  5.87412558E-05  5.87412558E-05  5.87412558E-05  5.87412558E-05  5.87412558E-05  5.87412558E-05  5.87412558E-05  5.87412558E-05  5.87412558E-05  5.87412558E-05  5.87412558E-05  5.87412558E-05  5.87412558E-05  5.87412558E-05  5.87412558E-05  5.87412558E-05  5.87412558E-05  5.87412558E-05  5.87412558E-05  5.87412558E-05  5.87412558E-05  5.87412558E-05  5.87412558E-05  5.87412558E-05  5.87412558E-05  5.87412558E-05  5.87412558E-05  8.51510663E-07  1.08278584E-06  1.33003527E-06  1.54890063E-06  1.64160713E-06  1.51917095E-06  1.36507026E-06  1.55118141E-06  1.48329593E-06  1.57038858E-06  1.46940351E-06  1.52581924E-06  1.37317318E-06  1.25749023E-06  1.33389835E-06  1.51749828E-06  1.49095717E-06  1.46580226E-06  1.44697105E-06  1.01909859E-06  9.60539523E-07  7.12895371E-07  4.00707535E-07  3.80756262E-07  2.68693867E-07  2.54013969E-07  2.54894445E-07  2.39637870E-07  2.03146286E-07  1.83506629E-07  1.54690554E-07  1.64882822E-05  2.11018742E-05  2.87182938E-05  2.52661430E-05  4.45311780E-05  5.20817230E-05  5.44857685E-05  5.57885505E-05  5.45962139E-05  6.04384768E-05  5.87887480E-05  6.53147799E-05  8.61580484E-05  9.89550390E-05  9.57282027E-05  1.15409624E-04  1.34374495E-04  1.73528009E-04  1.96004345E-04  1.86062709E-04  2.08307552E-04  2.40648369E-04  2.72440782E-04  2.87212461E-04  2.87574891E-04  2.73720012E-04  1.67646533E-04  8.33217200E-05  4.14647220E-05  4.46053782E-05  7.76476663E-05  7.14592943E-07  5.36099662E-07  2.62468238E-05  3.94981868E-07  3.30584442E-07  2.98725723E-07  2.48088639E-07  1.90585823E-07  1.85906828E-07  2.15812548E-07  2.82747379E-07  3.99144142E-07  6.41400050E-07  8.56327460E-07  1.13393787E-06  5.87412558E-05  5.87412558E-05  5.87412558E-05  5.87412558E-05  5.87412558E-05  5.87412558E-05  5.87412558E-05  5.87412558E-05  5.87412558E-05  5.87412558E-05  5.87412558E-05  4.98645647E-07  5.82803841E-06  1.27842213E-05  1.66857280E-05  1.94989516E-05
      1.41874247E-04  8.39875065E-05  6.49567519E-05  1.97454847E-05  1.84201156E-06  2.93032517E-05  2.95507289E-05  2.45276315E-05  5.82041025E-07  5.49303877E-07  5.75385343E-07  6.64913841E-07  6.12656038E-07  7.50227912E-07  7.70199165E-07  6.87843908E-07  1.09727789E-05  6.53664017E-07  5.27818429E-07  3.82114791E-07  5.87412558E-05  5.87412558E-05  5.87412558E-05  5.87412558E-05  5.87412558E-05  5.87412558E-05  5.87412558E-05  5.87412558E-05  5.87412558E-05  5.87412558E-05  5.87412558E-05  5.87412558E-05  5.87412558E-05  5.87412558E-05  5.87412558E-05  5.87412558E-05  5.87412558E-05  5.87412558E-05  5.87412558E-05  5.87412558E-05  5.87412558E-05  5.87412558E-05  5.87412558E-05  5.87412558E-05  5.87412558E-05  5.87412558E-05  5.87412558E-05  5.87412558E-05  5.87412558E-05  1.16059846E-06  1.36361484E-06  1.57054342E-06  1.52575126E-06  1.31404067E-06  1.42586941E-06  1.32038349E-06  1.41282112E-06  1.29277203E-06  1.30950377E-06  1.23146822E-06  1.10523024E-06  1.12892610E-06  1.33385936E-06  1.54185363E-06  1.73973001E-06  1.36859342E-06  1.22940048E-06  9.39557424E-07  8.92350215E-07  6.09753840E-07  6.00430440E-07  3.75503532E-07  3.33713615E-07  2.39233032E-07  2.61007528E-07  1.91008027E-07  2.03094714E-07  1.83600363E-07  4.05744941E-05  4.25119179E-05  3.52014249E-05  2.69695156E-05  3.48071953E-05  3.82355938E-05  4.15641989E-05  4.20679971E-05  4.86803183E-05  5.42557573E-05  5.03346237E-05  5.37189844E-05  6.45254258E-05  7.82379575E-05  9.23739572E-05  1.05060069E-04  1.20159835E-04  1.73404682E-04  1.95041299E-04  2.27387762E-04  2.48072902E-04  2.83386180E-04  3.29966715E-04  3.24486755E-04  3.15039244E-04  3.09237046E-04  1.82293399E-04  8.95419435E-05  4.84439661E-05  1.30285150E-06  9.54181360E-07  6.98180600E-07  3.18439597E-05  4.06688372E-07  3.59525927E-07  2.76765178E-07  2.64245131E-07  2.41053669E-07  1.89672789E-07  1.71208470E-07  2.18864358E-07  3.09492464E-07  5.00611407E-07  8.39473557E-07  1.11069107E-06  1.42908766E-06  5.87412558E-05  5.87412558E-05  5.87412558E-05  5.87412558E-05  5.87412558E-05  5.87412558E-05  5.87412558E-05  5.87412558E-05  5.87412558E-05  5.87412558E-05  5.87412558E-05  4.86353599E-07  4.33329802E-07  9.76937918E-06  1.58776929E-05  1.29801165E-05
      1.30904184E-04  9.51254115E-05  7.21223114E-05  5.35905310E-05  3.12130069E-05  1.32910895E-06  1.25247959E-06  2.50456505E-05  7.42897782E-07  7.15211115E-07  7.18803051E-07  8.58602903E-07  2.17124762E-05  1.83694156E-05  1.92066891E-05  4.12643349E-05  1.67383041E-05  7.13522979E-07  5.86868339E-07  5.87412558E-05  5.87412558E-05  5.87412558E-05  5.87412558E-05  5.87412558E-05  5.87412558E-05  5.87412558E-05  5.87412558E-05  5.87412558E-05  5.87412558E-05  5.87412558E-05  5.87412558E-05  5.87412558E-05  5.87412558E-05  5.87412558E-05  5.87412558E-05  5.87412558E-05  5.87412558E-05  5.87412558E-05  5.87412558E-05  5.87412558E-05  5.87412558E-05  5.87412558E-05  5.87412558E-05  5.87412558E-05  5.87412558E-05  5.87412558E-05  5.87412558E-05  5.87412558E-05  5.87412558E-05  5.87412558E-05  1.15191381E-06  1.17629338E-06  1.43191266E-06  1.41565351E-06  1.34549134E-06  1.18227865E-06  1.15275225E-06  1.10727490E-06  1.19275705E-06  1.10146425E-06  1.00519344E-06  1.01127546E-06  1.06847710E-06  1.22135009E-06  1.30325691E-06  1.27487726E-06  1.08170468E-06  9.01072781E-07  7.83541282E-07  7.22315463E-07  6.03704791E-07  5.30093700E-07  4.04350118E-07  2.94242511E-07  2.64376524E-07  1.99520343E-07  7.48895036E-05  5.69657896E-05  7.53645363E-05  5.70502416E-05  4.39825817E-05  3.35980367E-05  3.56420969E-05  3.24639623E-05  3.40769184E-05  3.58027464E-05  4.23050478E-05  4.49604377E-05  4.35508337E-05  3.91051726E-05  5.31351070E-05  6.66306369E-05  9.02697575E-05  1.11675763E-04  1.28222615E-04  1.66921905E-04  2.16891931E-04  2.77322950E-04  3.40706320E-04  4.00926830E-04  3.89442197E-04  3.59487807E-04  3.64185864E-04  3.47266498E-04  9.29663438E-05  1.61451533E-06  1.36780625E-06  1.17715751E-06  9.34416221E-07  6.67170411E-07  5.12621511E-07  3.83492278E-07  2.93160667E-07  2.48571439E-07  2.24047284E-07  2.09042582E-07  1.85112427E-07  1.74516956E-07  2.29695530E-07  3.70106989E-07  6.44767283E-07  9.90102535E-07  1.35280504E-06  1.82184715E-06  2.17367665E-06  5.87412558E-05  5.87412558E-05  5.87412558E-05  5.87412558E-05  5.87412558E-05  5.87412558E-05  5.87412558E-05  5.87412558E-05  5.87412558E-05  5.87412558E-05  5.25142696E-07  5.02137368E-07  4.32538172E-06  7.50563277E-06  9.83790414E-06
      9.21504470E-05  8.20531641E-05  6.76366326E-05  4.91453902E-05  3.46356937E-05  3.56018354E-05  3.75089403E-05  4.19733042E-05  3.86558204E-05  3.62538558E-05  3.44049004E-05  3.41607920E-05  5.64574366E-05  6.60240912E-05  6.87397551E-05  7.79819238E-05  4.62004173E-05  2.30529349E-05  7.86300063E-07  5.87412558E-05  5.87412558E-05  5.87412558E-05  5.87412558E-05  5.87412558E-05  5.87412558E-05  5.87412558E-05  5.87412558E-05  5.87412558E-05  5.87412558E-05  5.87412558E-05  5.87412558E-05  5.87412558E-05  5.87412558E-05  5.87412558E-05  5.87412558E-05  5.87412558E-05  5.87412558E-05  5.87412558E-05  5.87412558E-05  5.87412558E-05  5.87412558E-05  5.87412558E-05  5.87412558E-05  5.87412558E-05  5.87412558E-05  5.87412558E-05  5.87412558E-05  5.87412558E-05  5.87412558E-05  5.87412558E-05  5.87412558E-05  1.00264185E-06  1.27700116E-06  1.40643760E-06  1.27363819E-06  1.26486350E-06  1.26807436E-06  1.13829060E-06  1.18280354E-06  1.03863101E-06  9.43298971E-07  9.76589376E-07  1.05106426E-06  1.03215655E-06  1.01121407E-06  1.03444472E-06  9.25324514E-07  7.76494176E-07  6.98672920E-07  5.73502689E-07  5.17320871E-07  4.28925517E-07  3.57537743E-07  2.72853413E-07  2.52837197E-07  2.28499431E-07  8.96605852E-05  7.43894489E-05  1.01556245E-04  7.49844985E-05  5.63998146E-05  5.66942981E-05  4.23535930E-05  3.57276949E-05  3.13819619E-05  3.07657974E-05  3.48240756E-05  3.74489464E-05  3.79134835E-05  3.80386773E-05  5.02070325E-05  6.00442072E-05  9.50993490E-05  1.15512317E-04  1.52001652E-04  2.07154488E-04  2.86404218E-04  3.98425967E-04  5.45331743E-04  6.20488834E-04  5.74647274E-04  4.35036287E-04  3.73255985E-04  3.50721384E-04  1.09240151E-04  1.45360070E-06  1.23978452E-06  1.08009942E-06  6.60567594E-07  5.21303605E-07  4.04829933E-07  3.26084631E-07  2.70313421E-07  2.30273798E-07  2.04857898E-07  1.71601144E-07  1.67225693E-07  1.85487849E-07  2.41059979E-07  4.43470611E-07  8.46148055E-07  1.47255207E-06  1.87191426E-06  2.50432913E-06  3.14812951E-06  2.74466561E-06  5.87412558E-05  5.87412558E-05  5.87412558E-05  5.87412558E-05  5.87412558E-05  5.87412558E-05  5.87412558E-05  5.87412558E-05  5.87412558E-05  5.46331023E-07  5.04174466E-07  3.17795502E-06  6.82921154E-06  6.35130073E-06