# File generated by Flopy version 3.8.2 on 01/21/2025 at 16:05:34.
BEGIN options
END options

BEGIN timing
  TDIS6  test.tdis
END timing

BEGIN models
  prt6  test.nam  test
END models

BEGIN exchanges
END exchanges

BEGIN solutiongroup  1
  ems6  test.ems  test
END solutiongroup  1

