# File generated by Flopy version 3.9.1 on 01/21/2025 at 12:01:15.
BEGIN options
END options

BEGIN dimensions
  NLAY  40
  NROW  40
  NCOL  40
END dimensions

BEGIN griddata
  delr
    INTERNAL  FACTOR  1.0
         6.00000000       6.00000000       6.00000000       6.00000000       6.00000000       6.00000000       6.00000000       6.00000000       6.00000000       6.00000000       6.00000000       6.00000000       6.00000000       6.00000000       6.00000000       6.00000000       6.00000000       6.00000000       6.00000000       6.00000000       6.00000000       6.00000000       6.00000000       6.00000000       6.00000000       6.00000000       6.00000000       6.00000000       6.00000000       6.00000000       6.00000000       6.00000000       6.00000000       6.00000000       6.00000000       6.00000000       6.00000000       6.00000000       6.00000000       6.00000000
  delc
    INTERNAL  FACTOR  1.0
         3.00000000       3.00000000       3.00000000       3.00000000       3.00000000       3.00000000       3.00000000       3.00000000       3.00000000       3.00000000       3.00000000       3.00000000       3.00000000       3.00000000       3.00000000       3.00000000       3.00000000       3.00000000       3.00000000       3.00000000       3.00000000       3.00000000       3.00000000       3.00000000       3.00000000       3.00000000       3.00000000       3.00000000       3.00000000       3.00000000       3.00000000       3.00000000       3.00000000       3.00000000       3.00000000       3.00000000       3.00000000       3.00000000       3.00000000       3.00000000
  top
    INTERNAL  FACTOR  1.0
        -3.00003052      -3.00003052      -3.00003052      -3.00003052      -3.00003052      -3.00003052      -3.00003052      -3.00003052      -3.00003052      -3.00003052      -3.00003052      -3.00003052      -3.00003052      -3.00003052      -3.00003052      -3.00003052      -3.00003052      -3.00003052      -3.00003052      -3.00003052      -3.00003052      -3.00003052      -3.00003052      -3.00003052      -3.00003052      -3.00003052      -3.00003052      -3.00003052      -3.00003052      -3.00003052      -3.00003052      -3.00003052      -3.00003052      -3.00003052      -3.00003052      -3.00003052      -3.00003052      -3.00003052      -3.00003052      -3.00003052
        -3.00003052      -3.00003052      -3.00003052      -3.00003052      -3.00003052      -3.00003052      -3.00003052      -3.00003052      -3.00003052      -3.00003052      -3.00003052      -3.00003052      -3.00003052      -3.00003052      -3.00003052      -3.00003052      -3.00003052      -3.00003052      -3.00003052      -3.00003052      -3.00003052      -3.00003052      -3.00003052      -3.00003052      -3.00003052      -3.00003052      -3.00003052      -3.00003052      -3.00003052      -3.00003052      -3.00003052      -3.00003052      -3.00003052      -3.00003052      -3.00003052      -3.00003052      -3.00003052      -3.00003052      -3.00003052      -3.00003052
        -3.00003052      -3.00003052      -3.00003052      -3.00003052      -3.00003052      -3.00003052      -3.00003052      -3.00003052      -3.00003052      -3.00003052      -3.00003052      -3.00003052      -3.00003052      -3.00003052      -3.00003052      -3.00003052      -3.00003052      -3.00003052      -3.00003052      -3.00003052      -3.00003052      -3.00003052      -3.00003052      -3.00003052      -3.00003052      -3.00003052      -3.00003052      -3.00003052      -3.00003052      -3.00003052      -3.00003052      -3.00003052      -3.00003052      -3.00003052      -3.00003052      -3.00003052      -3.00003052      -3.00003052      -3.00003052      -3.00003052
        -3.00003052      -3.00003052      -3.00003052      -3.00003052      -3.00003052      -3.00003052      -3.00003052      -3.00003052      -3.00003052      -3.00003052      -3.00003052      -3.00003052      -3.00003052      -3.00003052      -3.00003052      -3.00003052      -3.00003052      -3.00003052      -3.00003052      -3.00003052      -3.00003052      -3.00003052      -3.00003052      -3.00003052      -3.00003052      -3.00003052      -3.00003052      -3.00003052      -3.00003052      -3.00003052      -3.00003052      -3.00003052      -3.00003052      -3.00003052      -3.00003052      -3.00003052      -3.00003052      -3.00003052      -3.00003052      -3.00003052
        -3.00003052      -3.00003052      -3.00003052      -3.00003052      -3.00003052      -3.00003052      -3.00003052      -3.00003052      -3.00003052      -3.00003052      -3.00003052      -3.00003052      -3.00003052      -3.00003052      -3.00003052      -3.00003052      -3.00003052      -3.00003052      -3.00003052      -3.00003052      -3.00003052      -3.00003052      -3.00003052      -3.00003052      -3.00003052      -3.00003052      -3.00003052      -3.00003052      -3.00003052      -3.00003052      -3.00003052      -3.00003052      -3.00003052      -3.00003052      -3.00003052      -3.00003052      -3.00003052      -3.00003052      -3.00003052      -3.00003052
        -3.00003052      -3.00003052      -3.00003052      -3.00003052      -3.00003052      -3.00003052      -3.00003052      -3.00003052      -3.00003052      -3.00003052      -3.00003052      -3.00003052      -3.00003052      -3.00003052      -3.00003052      -3.00003052      -3.00003052      -3.00003052      -3.00003052      -3.00003052      -3.00003052      -3.00003052      -3.00003052      -3.00003052      -3.00003052      -3.00003052      -3.00003052      -3.00003052      -3.00003052      -3.00003052      -3.00003052      -3.00003052      -3.00003052      -3.00003052      -3.00003052      -3.00003052      -3.00003052      -3.00003052      -3.00003052      -3.00003052
        -3.00003052      -3.00003052      -3.00003052      -3.00003052      -3.00003052      -3.00003052      -3.00003052      -3.00003052      -3.00003052      -3.00003052      -3.00003052      -3.00003052      -3.00003052      -3.00003052      -3.00003052      -3.00003052      -3.00003052      -3.00003052      -3.00003052      -3.00003052      -3.00003052      -3.00003052      -3.00003052      -3.00003052      -3.00003052      -3.00003052      -3.00003052      -3.00003052      -3.00003052      -3.00003052      -3.00003052      -3.00003052      -3.00003052      -3.00003052      -3.00003052      -3.00003052      -3.00003052      -3.00003052      -3.00003052      -3.00003052
        -3.00003052      -3.00003052      -3.00003052      -3.00003052      -3.00003052      -3.00003052      -3.00003052      -3.00003052      -3.00003052      -3.00003052      -3.00003052      -3.00003052      -3.00003052      -3.00003052      -3.00003052      -3.00003052      -3.00003052      -3.00003052      -3.00003052      -3.00003052      -3.00003052      -3.00003052      -3.00003052      -3.00003052      -3.00003052      -3.00003052      -3.00003052      -3.00003052      -3.00003052      -3.00003052      -3.00003052      -3.00003052      -3.00003052      -3.00003052      -3.00003052      -3.00003052      -3.00003052      -3.00003052      -3.00003052      -3.00003052
        -3.00003052      -3.00003052      -3.00003052      -3.00003052      -3.00003052      -3.00003052      -3.00003052      -3.00003052      -3.00003052      -3.00003052      -3.00003052      -3.00003052      -3.00003052      -3.00003052      -3.00003052      -3.00003052      -3.00003052      -3.00003052      -3.00003052      -3.00003052      -3.00003052      -3.00003052      -3.00003052      -3.00003052      -3.00003052      -3.00003052      -3.00003052      -3.00003052      -3.00003052      -3.00003052      -3.00003052      -3.00003052      -3.00003052      -3.00003052      -3.00003052      -3.00003052      -3.00003052      -3.00003052      -3.00003052      -3.00003052
        -3.00003052      -3.00003052      -3.00003052      -3.00003052      -3.00003052      -3.00003052      -3.00003052      -3.00003052      -3.00003052      -3.00003052      -3.00003052      -3.00003052      -3.00003052      -3.00003052      -3.00003052      -3.00003052      -3.00003052      -3.00003052      -3.00003052      -3.00003052      -3.00003052      -3.00003052      -3.00003052      -3.00003052      -3.00003052      -3.00003052      -3.00003052      -3.00003052      -3.00003052      -3.00003052      -3.00003052      -3.00003052      -3.00003052      -3.00003052      -3.00003052      -3.00003052      -3.00003052      -3.00003052      -3.00003052      -3.00003052
        -3.00003052      -3.00003052      -3.00003052      -3.00003052      -3.00003052      -3.00003052      -3.00003052      -3.00003052      -3.00003052      -3.00003052      -3.00003052      -3.00003052      -3.00003052      -3.00003052      -3.00003052      -3.00003052      -3.00003052      -3.00003052      -3.00003052      -3.00003052      -3.00003052      -3.00003052      -3.00003052      -3.00003052      -3.00003052      -3.00003052      -3.00003052      -3.00003052      -3.00003052      -3.00003052      -3.00003052      -3.00003052      -3.00003052      -3.00003052      -3.00003052      -3.00003052      -3.00003052      -3.00003052      -3.00003052      -3.00003052
        -3.00003052      -3.00003052      -3.00003052      -3.00003052      -3.00003052      -3.00003052      -3.00003052      -3.00003052      -3.00003052      -3.00003052      -3.00003052      -3.00003052      -3.00003052      -3.00003052      -3.00003052      -3.00003052      -3.00003052      -3.00003052      -3.00003052      -3.00003052      -3.00003052      -3.00003052      -3.00003052      -3.00003052      -3.00003052      -3.00003052      -3.00003052      -3.00003052      -3.00003052      -3.00003052      -3.00003052      -3.00003052      -3.00003052      -3.00003052      -3.00003052      -3.00003052      -3.00003052      -3.00003052      -3.00003052      -3.00003052
        -3.00003052      -3.00003052      -3.00003052      -3.00003052      -3.00003052      -3.00003052      -3.00003052      -3.00003052      -3.00003052      -3.00003052      -3.00003052      -3.00003052      -3.00003052      -3.00003052      -3.00003052      -3.00003052      -3.00003052      -3.00003052      -3.00003052      -3.00003052      -3.00003052      -3.00003052      -3.00003052      -3.00003052      -3.00003052      -3.00003052      -3.00003052      -3.00003052      -3.00003052      -3.00003052      -3.00003052      -3.00003052      -3.00003052      -3.00003052      -3.00003052      -3.00003052      -3.00003052      -3.00003052      -3.00003052      -3.00003052
        -3.00003052      -3.00003052      -3.00003052      -3.00003052      -3.00003052      -3.00003052      -3.00003052      -3.00003052      -3.00003052      -3.00003052      -3.00003052      -3.00003052      -3.00003052      -3.00003052      -3.00003052      -3.00003052      -3.00003052      -3.00003052      -3.00003052      -3.00003052      -3.00003052      -3.00003052      -3.00003052      -3.00003052      -3.00003052      -3.00003052      -3.00003052      -3.00003052      -3.00003052      -3.00003052      -3.00003052      -3.00003052      -3.00003052      -3.00003052      -3.00003052      -3.00003052      -3.00003052      -3.00003052      -3.00003052      -3.00003052
        -3.00003052      -3.00003052      -3.00003052      -3.00003052      -3.00003052      -3.00003052      -3.00003052      -3.00003052      -3.00003052      -3.00003052      -3.00003052      -3.00003052      -3.00003052      -3.00003052      -3.00003052      -3.00003052      -3.00003052      -3.00003052      -3.00003052      -3.00003052      -3.00003052      -3.00003052      -3.00003052      -3.00003052      -3.00003052      -3.00003052      -3.00003052      -3.00003052      -3.00003052      -3.00003052      -3.00003052      -3.00003052      -3.00003052      -3.00003052      -3.00003052      -3.00003052      -3.00003052      -3.00003052      -3.00003052      -3.00003052
        -3.00003052      -3.00003052      -3.00003052      -3.00003052      -3.00003052      -3.00003052      -3.00003052      -3.00003052      -3.00003052      -3.00003052      -3.00003052      -3.00003052      -3.00003052      -3.00003052      -3.00003052      -3.00003052      -3.00003052      -3.00003052      -3.00003052      -3.00003052      -3.00003052      -3.00003052      -3.00003052      -3.00003052      -3.00003052      -3.00003052      -3.00003052      -3.00003052      -3.00003052      -3.00003052      -3.00003052      -3.00003052      -3.00003052      -3.00003052      -3.00003052      -3.00003052      -3.00003052      -3.00003052      -3.00003052      -3.00003052
        -3.00003052      -3.00003052      -3.00003052      -3.00003052      -3.00003052      -3.00003052      -3.00003052      -3.00003052      -3.00003052      -3.00003052      -3.00003052      -3.00003052      -3.00003052      -3.00003052      -3.00003052      -3.00003052      -3.00003052      -3.00003052      -3.00003052      -3.00003052      -3.00003052      -3.00003052      -3.00003052      -3.00003052      -3.00003052      -3.00003052      -3.00003052      -3.00003052      -3.00003052      -3.00003052      -3.00003052      -3.00003052      -3.00003052      -3.00003052      -3.00003052      -3.00003052      -3.00003052      -3.00003052      -3.00003052      -3.00003052
        -3.00003052      -3.00003052      -3.00003052      -3.00003052      -3.00003052      -3.00003052      -3.00003052      -3.00003052      -3.00003052      -3.00003052      -3.00003052      -3.00003052      -3.00003052      -3.00003052      -3.00003052      -3.00003052      -3.00003052      -3.00003052      -3.00003052      -3.00003052      -3.00003052      -3.00003052      -3.00003052      -3.00003052      -3.00003052      -3.00003052      -3.00003052      -3.00003052      -3.00003052      -3.00003052      -3.00003052      -3.00003052      -3.00003052      -3.00003052      -3.00003052      -3.00003052      -3.00003052      -3.00003052      -3.00003052      -3.00003052
        -3.00003052      -3.00003052      -3.00003052      -3.00003052      -3.00003052      -3.00003052      -3.00003052      -3.00003052      -3.00003052      -3.00003052      -3.00003052      -3.00003052      -3.00003052      -3.00003052      -3.00003052      -3.00003052      -3.00003052      -3.00003052      -3.00003052      -3.00003052      -3.00003052      -3.00003052      -3.00003052      -3.00003052      -3.00003052      -3.00003052      -3.00003052      -3.00003052      -3.00003052      -3.00003052      -3.00003052      -3.00003052      -3.00003052      -3.00003052      -3.00003052      -3.00003052      -3.00003052      -3.00003052      -3.00003052      -3.00003052
        -3.00003052      -3.00003052      -3.00003052      -3.00003052      -3.00003052      -3.00003052      -3.00003052      -3.00003052      -3.00003052      -3.00003052      -3.00003052      -3.00003052      -3.00003052      -3.00003052      -3.00003052      -3.00003052      -3.00003052      -3.00003052      -3.00003052      -3.00003052      -3.00003052      -3.00003052      -3.00003052      -3.00003052      -3.00003052      -3.00003052      -3.00003052      -3.00003052      -3.00003052      -3.00003052      -3.00003052      -3.00003052      -3.00003052      -3.00003052      -3.00003052      -3.00003052      -3.00003052      -3.00003052      -3.00003052      -3.00003052
        -3.00003052      -3.00003052      -3.00003052      -3.00003052      -3.00003052      -3.00003052      -3.00003052      -3.00003052      -3.00003052      -3.00003052      -3.00003052      -3.00003052      -3.00003052      -3.00003052      -3.00003052      -3.00003052      -3.00003052      -3.00003052      -3.00003052      -3.00003052      -3.00003052      -3.00003052      -3.00003052      -3.00003052      -3.00003052      -3.00003052      -3.00003052      -3.00003052      -3.00003052      -3.00003052      -3.00003052      -3.00003052      -3.00003052      -3.00003052      -3.00003052      -3.00003052      -3.00003052      -3.00003052      -3.00003052      -3.00003052
        -3.00003052      -3.00003052      -3.00003052      -3.00003052      -3.00003052      -3.00003052      -3.00003052      -3.00003052      -3.00003052      -3.00003052      -3.00003052      -3.00003052      -3.00003052      -3.00003052      -3.00003052      -3.00003052      -3.00003052      -3.00003052      -3.00003052      -3.00003052      -3.00003052      -3.00003052      -3.00003052      -3.00003052      -3.00003052      -3.00003052      -3.00003052      -3.00003052      -3.00003052      -3.00003052      -3.00003052      -3.00003052      -3.00003052      -3.00003052      -3.00003052      -3.00003052      -3.00003052      -3.00003052      -3.00003052      -3.00003052
        -3.00003052      -3.00003052      -3.00003052      -3.00003052      -3.00003052      -3.00003052      -3.00003052      -3.00003052      -3.00003052      -3.00003052      -3.00003052      -3.00003052      -3.00003052      -3.00003052      -3.00003052      -3.00003052      -3.00003052      -3.00003052      -3.00003052      -3.00003052      -3.00003052      -3.00003052      -3.00003052      -3.00003052      -3.00003052      -3.00003052      -3.00003052      -3.00003052      -3.00003052      -3.00003052      -3.00003052      -3.00003052      -3.00003052      -3.00003052      -3.00003052      -3.00003052      -3.00003052      -3.00003052      -3.00003052      -3.00003052
        -3.00003052      -3.00003052      -3.00003052      -3.00003052      -3.00003052      -3.00003052      -3.00003052      -3.00003052      -3.00003052      -3.00003052      -3.00003052      -3.00003052      -3.00003052      -3.00003052      -3.00003052      -3.00003052      -3.00003052      -3.00003052      -3.00003052      -3.00003052      -3.00003052      -3.00003052      -3.00003052      -3.00003052      -3.00003052      -3.00003052      -3.00003052      -3.00003052      -3.00003052      -3.00003052      -3.00003052      -3.00003052      -3.00003052      -3.00003052      -3.00003052      -3.00003052      -3.00003052      -3.00003052      -3.00003052      -3.00003052
        -3.00003052      -3.00003052      -3.00003052      -3.00003052      -3.00003052      -3.00003052      -3.00003052      -3.00003052      -3.00003052      -3.00003052      -3.00003052      -3.00003052      -3.00003052      -3.00003052      -3.00003052      -3.00003052      -3.00003052      -3.00003052      -3.00003052      -3.00003052      -3.00003052      -3.00003052      -3.00003052      -3.00003052      -3.00003052      -3.00003052      -3.00003052      -3.00003052      -3.00003052      -3.00003052      -3.00003052      -3.00003052      -3.00003052      -3.00003052      -3.00003052      -3.00003052      -3.00003052      -3.00003052      -3.00003052      -3.00003052
        -3.00003052      -3.00003052      -3.00003052      -3.00003052      -3.00003052      -3.00003052      -3.00003052      -3.00003052      -3.00003052      -3.00003052      -3.00003052      -3.00003052      -3.00003052      -3.00003052      -3.00003052      -3.00003052      -3.00003052      -3.00003052      -3.00003052      -3.00003052      -3.00003052      -3.00003052      -3.00003052      -3.00003052      -3.00003052      -3.00003052      -3.00003052      -3.00003052      -3.00003052      -3.00003052      -3.00003052      -3.00003052      -3.00003052      -3.00003052      -3.00003052      -3.00003052      -3.00003052      -3.00003052      -3.00003052      -3.00003052
        -3.00003052      -3.00003052      -3.00003052      -3.00003052      -3.00003052      -3.00003052      -3.00003052      -3.00003052      -3.00003052      -3.00003052      -3.00003052      -3.00003052      -3.00003052      -3.00003052      -3.00003052      -3.00003052      -3.00003052      -3.00003052      -3.00003052      -3.00003052      -3.00003052      -3.00003052      -3.00003052      -3.00003052      -3.00003052      -3.00003052      -3.00003052      -3.00003052      -3.00003052      -3.00003052      -3.00003052      -3.00003052      -3.00003052      -3.00003052      -3.00003052      -3.00003052      -3.00003052      -3.00003052      -3.00003052      -3.00003052
        -3.00003052      -3.00003052      -3.00003052      -3.00003052      -3.00003052      -3.00003052      -3.00003052      -3.00003052      -3.00003052      -3.00003052      -3.00003052      -3.00003052      -3.00003052      -3.00003052      -3.00003052      -3.00003052      -3.00003052      -3.00003052      -3.00003052      -3.00003052      -3.00003052      -3.00003052      -3.00003052      -3.00003052      -3.00003052      -3.00003052      -3.00003052      -3.00003052      -3.00003052      -3.00003052      -3.00003052      -3.00003052      -3.00003052      -3.00003052      -3.00003052      -3.00003052      -3.00003052      -3.00003052      -3.00003052      -3.00003052
        -3.00003052      -3.00003052      -3.00003052      -3.00003052      -3.00003052      -3.00003052      -3.00003052      -3.00003052      -3.00003052      -3.00003052      -3.00003052      -3.00003052      -3.00003052      -3.00003052      -3.00003052      -3.00003052      -3.00003052      -3.00003052      -3.00003052      -3.00003052      -3.00003052      -3.00003052      -3.00003052      -3.00003052      -3.00003052      -3.00003052      -3.00003052      -3.00003052      -3.00003052      -3.00003052      -3.00003052      -3.00003052      -3.00003052      -3.00003052      -3.00003052      -3.00003052      -3.00003052      -3.00003052      -3.00003052      -3.00003052
        -3.00003052      -3.00003052      -3.00003052      -3.00003052      -3.00003052      -3.00003052      -3.00003052      -3.00003052      -3.00003052      -3.00003052      -3.00003052      -3.00003052      -3.00003052      -3.00003052      -3.00003052      -3.00003052      -3.00003052      -3.00003052      -3.00003052      -3.00003052      -3.00003052      -3.00003052      -3.00003052      -3.00003052      -3.00003052      -3.00003052      -3.00003052      -3.00003052      -3.00003052      -3.00003052      -3.00003052      -3.00003052      -3.00003052      -3.00003052      -3.00003052      -3.00003052      -3.00003052      -3.00003052      -3.00003052      -3.00003052
        -3.00003052      -3.00003052      -3.00003052      -3.00003052      -3.00003052      -3.00003052      -3.00003052      -3.00003052      -3.00003052      -3.00003052      -3.00003052      -3.00003052      -3.00003052      -3.00003052      -3.00003052      -3.00003052      -3.00003052      -3.00003052      -3.00003052      -3.00003052      -3.00003052      -3.00003052      -3.00003052      -3.00003052      -3.00003052      -3.00003052      -3.00003052      -3.00003052      -3.00003052      -3.00003052      -3.00003052      -3.00003052      -3.00003052      -3.00003052      -3.00003052      -3.00003052      -3.00003052      -3.00003052      -3.00003052      -3.00003052
        -3.00003052      -3.00003052      -3.00003052      -3.00003052      -3.00003052      -3.00003052      -3.00003052      -3.00003052      -3.00003052      -3.00003052      -3.00003052      -3.00003052      -3.00003052      -3.00003052      -3.00003052      -3.00003052      -3.00003052      -3.00003052      -3.00003052      -3.00003052      -3.00003052      -3.00003052      -3.00003052      -3.00003052      -3.00003052      -3.00003052      -3.00003052      -3.00003052      -3.00003052      -3.00003052      -3.00003052      -3.00003052      -3.00003052      -3.00003052      -3.00003052      -3.00003052      -3.00003052      -3.00003052      -3.00003052      -3.00003052
        -3.00003052      -3.00003052      -3.00003052      -3.00003052      -3.00003052      -3.00003052      -3.00003052      -3.00003052      -3.00003052      -3.00003052      -3.00003052      -3.00003052      -3.00003052      -3.00003052      -3.00003052      -3.00003052      -3.00003052      -3.00003052      -3.00003052      -3.00003052      -3.00003052      -3.00003052      -3.00003052      -3.00003052      -3.00003052      -3.00003052      -3.00003052      -3.00003052      -3.00003052      -3.00003052      -3.00003052      -3.00003052      -3.00003052      -3.00003052      -3.00003052      -3.00003052      -3.00003052      -3.00003052      -3.00003052      -3.00003052
        -3.00003052      -3.00003052      -3.00003052      -3.00003052      -3.00003052      -3.00003052      -3.00003052      -3.00003052      -3.00003052      -3.00003052      -3.00003052      -3.00003052      -3.00003052      -3.00003052      -3.00003052      -3.00003052      -3.00003052      -3.00003052      -3.00003052      -3.00003052      -3.00003052      -3.00003052      -3.00003052      -3.00003052      -3.00003052      -3.00003052      -3.00003052      -3.00003052      -3.00003052      -3.00003052      -3.00003052      -3.00003052      -3.00003052      -3.00003052      -3.00003052      -3.00003052      -3.00003052      -3.00003052      -3.00003052      -3.00003052
        -3.00003052      -3.00003052      -3.00003052      -3.00003052      -3.00003052      -3.00003052      -3.00003052      -3.00003052      -3.00003052      -3.00003052      -3.00003052      -3.00003052      -3.00003052      -3.00003052      -3.00003052      -3.00003052      -3.00003052      -3.00003052      -3.00003052      -3.00003052      -3.00003052      -3.00003052      -3.00003052      -3.00003052      -3.00003052      -3.00003052      -3.00003052      -3.00003052      -3.00003052      -3.00003052      -3.00003052      -3.00003052      -3.00003052      -3.00003052      -3.00003052      -3.00003052      -3.00003052      -3.00003052      -3.00003052      -3.00003052
        -3.00003052      -3.00003052      -3.00003052      -3.00003052      -3.00003052      -3.00003052      -3.00003052      -3.00003052      -3.00003052      -3.00003052      -3.00003052      -3.00003052      -3.00003052      -3.00003052      -3.00003052      -3.00003052      -3.00003052      -3.00003052      -3.00003052      -3.00003052      -3.00003052      -3.00003052      -3.00003052      -3.00003052      -3.00003052      -3.00003052      -3.00003052      -3.00003052      -3.00003052      -3.00003052      -3.00003052      -3.00003052      -3.00003052      -3.00003052      -3.00003052      -3.00003052      -3.00003052      -3.00003052      -3.00003052      -3.00003052
        -3.00003052      -3.00003052      -3.00003052      -3.00003052      -3.00003052      -3.00003052      -3.00003052      -3.00003052      -3.00003052      -3.00003052      -3.00003052      -3.00003052      -3.00003052      -3.00003052      -3.00003052      -3.00003052      -3.00003052      -3.00003052      -3.00003052      -3.00003052      -3.00003052      -3.00003052      -3.00003052      -3.00003052      -3.00003052      -3.00003052      -3.00003052      -3.00003052      -3.00003052      -3.00003052      -3.00003052      -3.00003052      -3.00003052      -3.00003052      -3.00003052      -3.00003052      -3.00003052      -3.00003052      -3.00003052      -3.00003052
        -3.00003052      -3.00003052      -3.00003052      -3.00003052      -3.00003052      -3.00003052      -3.00003052      -3.00003052      -3.00003052      -3.00003052      -3.00003052      -3.00003052      -3.00003052      -3.00003052      -3.00003052      -3.00003052      -3.00003052      -3.00003052      -3.00003052      -3.00003052      -3.00003052      -3.00003052      -3.00003052      -3.00003052      -3.00003052      -3.00003052      -3.00003052      -3.00003052      -3.00003052      -3.00003052      -3.00003052      -3.00003052      -3.00003052      -3.00003052      -3.00003052      -3.00003052      -3.00003052      -3.00003052      -3.00003052      -3.00003052
        -3.00003052      -3.00003052      -3.00003052      -3.00003052      -3.00003052      -3.00003052      -3.00003052      -3.00003052      -3.00003052      -3.00003052      -3.00003052      -3.00003052      -3.00003052      -3.00003052      -3.00003052      -3.00003052      -3.00003052      -3.00003052      -3.00003052      -3.00003052      -3.00003052      -3.00003052      -3.00003052      -3.00003052      -3.00003052      -3.00003052      -3.00003052      -3.00003052      -3.00003052      -3.00003052      -3.00003052      -3.00003052      -3.00003052      -3.00003052      -3.00003052      -3.00003052      -3.00003052      -3.00003052      -3.00003052      -3.00003052
        -3.00003052      -3.00003052      -3.00003052      -3.00003052      -3.00003052      -3.00003052      -3.00003052      -3.00003052      -3.00003052      -3.00003052      -3.00003052      -3.00003052      -3.00003052      -3.00003052      -3.00003052      -3.00003052      -3.00003052      -3.00003052      -3.00003052      -3.00003052      -3.00003052      -3.00003052      -3.00003052      -3.00003052      -3.00003052      -3.00003052      -3.00003052      -3.00003052      -3.00003052      -3.00003052      -3.00003052      -3.00003052      -3.00003052      -3.00003052      -3.00003052      -3.00003052      -3.00003052      -3.00003052      -3.00003052      -3.00003052
  botm  LAYERED
    INTERNAL  FACTOR  1.0
          -3.30002975      -3.30002975      -3.30002975      -3.30002975      -3.30002975      -3.30002975      -3.30002975      -3.30002975      -3.30002975      -3.30002975      -3.30002975      -3.30002975      -3.30002975      -3.30002975      -3.30002975      -3.30002975      -3.30002975      -3.30002975      -3.30002975      -3.30002975      -3.30002975      -3.30002975      -3.30002975      -3.30002975      -3.30002975      -3.30002975      -3.30002975      -3.30002975      -3.30002975      -3.30002975      -3.30002975      -3.30002975      -3.30002975      -3.30002975      -3.30002975      -3.30002975      -3.30002975      -3.30002975      -3.30002975      -3.30002975