# File generated by Flopy version 3.8.2 on 01/24/2025 at 09:15:47.
BEGIN options
END options

BEGIN packages
  DIS6  test.dis  dis
  MIP6  test.mip  mip
  PRP6  test.prp  prp
  OC6  test.oc  oc
  FMI6  test.fmi  fmi
END packages

