# File generated by Flopy version 3.8.2 on 01/24/2025 at 09:15:47.
BEGIN options
  EXIT_SOLVE_TOLERANCE  1.00000000E-05
END options

BEGIN dimensions
  NRELEASEPTS  100
END dimensions

BEGIN packagedata
  1  3 15 28     163.38734471      41.15725762      -6.22420746
  2  7 10 35     209.48932300      66.40932088      -7.99506065
  3  4 3 17     100.01738497     111.62870451      -6.37977143
  4  6 14 25     145.95455104      45.01598976      -7.61295206
  5  8 2 21     122.30689540     114.47542902      -8.74496529
  6  8 8 20     114.03546640      78.54337459      -8.31304200
  7  6 21 22     128.31155213       1.99347660      -7.78060283
  8  7 2 26     152.52523051     117.10909145      -8.02703435
  9  3 7 27     160.30865608      87.05301161      -6.33218358
  10  4 1 31     181.90014357     125.66267916      -6.36569954
  11  8 18 28     163.71756619      21.71490405      -8.72305974
  12  3 19 35     204.15336406      17.27910445      -6.16531862
  13  10 2 22     131.07674196     117.50702834      -9.71719950
  14  11 7 39     233.47385033      87.79908835      -9.93151716
  15  11 20 18     104.16291417       8.31602176      -9.89214379
  16  7 6 34     201.91106155      95.18834463      -8.22452025
  17  12 6 28     163.43032996      94.98839975     -10.40313838
  18  3 2 31     184.92085392     116.30109148      -6.23413405
  19  4 7 21     121.33881467      89.65211959      -6.77798038
  20  12 19 22     130.11142634      15.65814121     -10.43241459
  21  10 21 37     221.71317444       2.50489686      -9.70711685
  22  9 21 42     247.17575951       3.30258435      -9.00571392
  23  11 21 25     147.64047508       3.56661749      -9.91051420
  24  5 16 35     205.23303758      31.02259452      -6.85729189
  25  9 3 39     233.21115115     108.36352153      -8.94868506
  26  3 10 40     235.98021285      67.89271411      -6.26951633
  27  7 10 19     112.92672013      69.65556931      -7.88093619
  28  4 4 18     105.93632705     106.09589244      -6.54525607
  29  4 19 21     125.81422377      15.64583771      -6.69869500
  30  4 16 39     233.47766052      35.17714356      -6.42573457
  31  8 9 20     114.94871874      73.80566820      -8.43053880
  32  7 1 28     164.00835900     122.16906429      -8.04143933
  33  5 10 41     245.59920858      70.68980763      -6.90628384
  34  9 21 31     181.04112332       2.34955846      -9.21426517
  35  8 5 35     205.16532132     100.87971676      -8.29385915
  36  7 17 25     147.95837591      29.35475850      -7.80400362
  37  12 5 35     204.34814101     101.69525465     -10.43010026
  38  7 13 38     226.86310213      48.87044115      -7.82933366
  39  8 3 18     102.77981816     108.80627367      -8.54845643
  40  5 6 36     214.02193587      94.13732698      -6.86687762
  41  9 10 42     250.30688551      70.08626948      -9.08139839
  42  4 19 36     213.72117947      17.19335843      -6.48200081
  43  7 20 24     142.62748679       7.54962888      -7.89964253
  44  10 19 37     219.97045792      15.28927542      -9.67195409
  45  5 21 20     115.69035300       5.61353670      -6.95431845
  46  6 19 29     168.07981598      13.54426027      -7.74585970
  47  12 17 40     238.10651647      28.43937666     -10.25740828
  48  8 7 25     144.62935055      89.83661153      -8.60912844
  49  6 10 24     143.74185147      70.52433974      -7.44419024
  50  4 21 20     119.76434296       1.58205350      -6.36629200
  51  12 20 18     102.94377760       9.06875924     -10.49819089
  52  3 1 34     203.18300101     121.87681758      -6.10458383
  53  9 10 23     132.16747363      71.58065820      -8.80538858
  54  3 17 24     140.36309222      25.61494757      -6.11797408
  55  6 16 30     174.71912021      31.79304382      -7.77877755
  56  4 6 19     108.11110686      93.72205761      -6.77019386
  57  7 17 32     187.26587603      24.62411462      -7.91379823
  58  6 9 21     122.30274339      73.25122484      -7.67365711
  59  9 1 32     189.57444161     122.22251863      -9.21490673
  60  7 4 35     206.36327072     106.70042899      -7.85924997
  61  5 16 20     115.55483318      30.22081765      -7.12490206
  62  4 11 28     162.93651015      62.21498400      -6.63758774
  63  5 8 35     205.54882397      78.11442052      -7.10213015
  64  6 4 28     162.95524897     104.45159334      -7.35874238
  65  4 18 18     107.59292576      19.75571573      -6.60984256
  66  9 21 31     181.45625370       2.34060147      -9.04793551
  67  6 20 34     200.89678607       8.82279011      -7.48145044
  68  8 11 30     178.26314503      61.27948398      -8.47106729
  69  9 9 41     243.57840291      76.39751217      -8.78053762
  70  8 10 32     189.15636616      71.67528107      -8.65134893
  71  8 15 40     237.31709112      39.98766357      -8.69334187
  72  9 1 21     120.89615503     124.56563546      -9.07177224
  73  6 9 21     121.17000478      73.04789762      -7.70136284
  74  8 14 38     222.72347588      47.89778775      -8.56388728
  75  3 10 27     160.44687922      69.41947561      -6.11789065
  76  6 6 21     125.13383796      93.91213829      -7.44989599
  77  10 7 41     240.98130422      84.32334458      -9.60643550
  78  8 16 26     152.86041068      33.37986427      -8.57984546
  79  9 20 36     214.12343968       8.35818914      -8.95494192
  80  5 14 36     210.35169377      46.63060894      -6.91062538
  81  4 8 40     234.26252586      79.34440588      -6.54000770
  82  4 17 33     194.79817547      26.48192525      -6.43271120
  83  6 6 36     214.14324997      94.84719977      -7.51776084
  84  10 20 26     153.03254798       8.38359665      -9.28406282
  85  10 16 24     141.02903955      32.79970242      -9.36434984
  86  4 5 40     236.17470517     101.39907503      -6.65295926
  87  7 17 28     165.06986086      24.37271961      -8.12528409
  88  5 8 42     246.65568717      80.57207099      -6.89027512
  89  7 10 34     200.84310767      66.10845895      -7.92380167
  90  5 2 33     194.49774947     116.52580427      -7.20085864
  91  7 16 20     117.44138789      33.17539308      -8.16444768
  92  5 20 41     244.32236732       8.31109743      -7.03102240
  93  7 6 29     168.38664429      92.61831137      -7.94013904
  94  8 5 32     187.91522139      97.29443172      -8.40430555
  95  9 2 28     162.03679402     114.38479742      -8.95789991
  96  11 2 23     136.02810100     117.42848072     -10.19305793
  97  9 21 40     237.31368713       1.75789819      -8.79934119
  98  11 17 32     187.19928197      29.52962285     -10.14168265
  99  3 9 17     100.43628971      77.71407298      -6.07732299
  100  10 2 33     193.80602687     119.57605641      -9.68274217
END packagedata

BEGIN period  1
  FIRST
END period  1

