# File generated by Flopy version 3.8.2 on 01/22/2025 at 13:57:56.
BEGIN options
END options

BEGIN griddata
  porosity
    CONSTANT       0.20000000
END griddata

