# File generated by Flopy version 3.9.1 on 01/21/2025 at 12:01:16.
BEGIN options
END options

BEGIN griddata
  porosity
    CONSTANT       0.20000000
END griddata

