# File generated by Flopy version 3.8.2 on 01/21/2025 at 16:05:35.
BEGIN options
  EXIT_SOLVE_TOLERANCE  1.00000000E-05
END options

BEGIN dimensions
  NRELEASEPTS  30
END dimensions

BEGIN packagedata
  1  14 19 28     163.38734471      12.39170106     -11.38599343
  2  10 13 35     209.48932300      53.05956075      -9.51566407
  3  7 1 17     100.01738497     120.69408080      -7.83359905
  4  10 10 25     145.95455104      67.17882591      -9.51492438
  5  15 7 21     122.30689540      87.17651636     -11.70027925
  6  9 15 20     114.03546640      39.75496951      -8.78462156
  7  7 7 22     128.31155213      86.49911689      -8.01723213
  8  9 4 26     152.52523051     105.16283466      -8.91066533
  9  3 21 27     160.30865608       2.30432295      -6.33243146
  10  8 6 31     181.90014357      94.51818368      -8.48066976
  11  4 1 28     163.71756619     124.59649720      -6.57958851
  12  14 6 35     204.15336406      94.26887245     -11.17515178
  13  14 16 22     131.07674196      35.33594300     -11.16434192
  14  5 5 39     233.47385033      99.44919538      -7.15565227
  15  10 19 18     104.16291417      13.00647683      -9.61393898
  16  13 12 34     201.91106155      56.43458430     -11.00787482
  17  4 2 28     163.43032996     114.48303339      -6.43494852
  18  11 15 31     184.92085392      36.99538270      -9.91340484
  19  6 15 21     121.33881467      36.25969266      -7.49512738
  20  6 19 22     130.11142634      16.38360009      -7.64401209
  21  4 21 37     221.71317444       2.44023669      -6.70016345
  22  7 7 42     247.17575951      85.53327715      -8.25796676
  23  6 17 25     147.64047508      26.66514262      -7.49434540
  24  11 16 35     205.23303758      33.45887908      -9.90660995
  25  12 11 39     233.21115115      61.93821807     -10.38043265
  26  4 20 40     235.98021285       6.72368068      -6.62468269
  27  10 9 19     112.92672013      72.33881829      -9.43145286
  28  3 18 18     105.93632705      18.48780044      -6.21095972
  29  7 9 21     125.81422377      74.25249765      -8.01935101
  30  7 7 39     233.47766052      88.16955336      -8.26982568
END packagedata

BEGIN period  1
  FIRST
END period  1

