# File generated by Flopy version 3.9.1 on 01/21/2025 at 12:01:16.
BEGIN options
  EXIT_SOLVE_TOLERANCE  1.00000000E-05
END options

BEGIN dimensions
  NRELEASEPTS  30
END dimensions

BEGIN packagedata
  1  29 37 27     158.38308066      11.80162006     -11.48832786
  2  24 24 34     200.84542908      50.53291500      -9.92972006
  3  19 2 17     100.01601247     114.94674362      -8.52799921
  4  24 19 24     142.32656017      63.97983420      -9.92910365
  5  30 13 21     120.54582471      83.02525367     -11.75023271
  6  22 28 19     112.92740327      37.86187572      -9.32051797
  7  19 13 22     126.07642959      82.38011132      -8.68102677
  8  22 7 25     148.37850179     100.15508063      -9.42555444
  9  15 40 26     155.54744639       2.19459328      -7.27702622
  10  21 10 30     175.43434276      90.01731779      -9.06722480
  11  15 1 27     158.68723202     118.66333067      -7.48299042
  12  28 11 33     195.93073006      89.77987853     -11.31262648
  13  28 29 22     128.62331496      33.65327905     -11.30361826
  14  17 9 38     222.93644109      94.71351941      -7.96304356
  15  24 36 18     103.83426305      12.38712079     -10.01161582
  16  28 23 33     193.86545142      53.74722314     -11.17322901
  17  15 4 27     158.42267233     109.03146037      -7.36245710
  18  25 29 30     178.21657598      35.23369780     -10.26117070
  19  18 29 20     119.65417140      34.53304063      -8.24593948
  20  18 35 22     127.73420847      15.60342865      -8.37001007
  21  16 40 36     212.10423961       2.32403494      -7.58346954
  22  20 13 40     235.55662060      81.46026395      -8.88163896
  23  18 32 24     143.87938494      25.39537392      -8.24528783
  24  25 30 33     196.92516619      31.86559912     -10.25550829
  25  26 21 38     222.69448132      58.98877911     -10.65036054
  26  16 38 38     225.24493289       6.40350541      -7.52056891
  27  23 18 19     111.90618959      68.89411266      -9.85954405
  28  14 35 18     105.46766965      17.60742899      -7.17579976
  29  19 17 21     123.77625874      70.71666443      -8.68279251
  30  20 13 38     222.93995048      83.97100320      -8.89152140
END packagedata

BEGIN period  1
  FIRST
END period  1

