# File generated by Flopy version 3.8.2 on 01/21/2025 at 17:43:23.
BEGIN options
END options

BEGIN griddata
  porosity
    CONSTANT       0.20000000
END griddata

