# File generated by Flopy version 3.8.2 on 01/22/2025 at 13:57:56.
BEGIN options
  EXIT_SOLVE_TOLERANCE  1.00000000E-05
END options

BEGIN dimensions
  NRELEASEPTS  200
END dimensions

BEGIN packagedata
  1  3 2 28     163.38734471     119.72219103      -6.18254556
  2  5 10 35     209.48932300      70.13830171      -6.88217599
  3  12 2 17     100.01738497     115.36640007     -10.35454620
  4  5 8 25     145.95455104      80.83734233      -7.30775737
  5  8 13 21     122.30689540      49.14097198      -8.40749333
  6  3 11 20     114.03546640      61.23482405      -6.23602976
  7  10 9 22     128.31155213      76.14312085      -9.50355270
  8  10 10 26     152.52523051      69.24303811      -9.29817591
  9  11 2 27     160.30865608     116.69885977     -10.13336716
  10  8 2 31     181.90014357     115.76041289      -8.57121527
  11  11 13 28     163.71756619      49.75432723     -10.00941556
  12  6 1 35     204.15336406     121.37107858      -7.64795958
  13  5 18 22     131.07674196      21.91841400      -6.88666543
  14  6 19 39     233.47385033      15.91751945      -7.36439777
  15  5 19 18     104.16291417      17.01997391      -7.05204879
  16  9 11 34     201.91106155      63.71343288      -8.95895646
  17  4 21 28     163.43032996       2.71212546      -6.69366833
  18  8 2 31     184.92085392     119.44424661      -8.57054051
  19  4 4 21     121.33881467     104.21654937      -6.79195558
  20  6 21 22     130.11142634       1.89239157      -7.68076729
  21  11 18 37     221.71317444      22.20072820      -9.85459628
  22  11 15 42     247.17575951      41.84001037     -10.14725895
  23  12 19 25     147.64047508      16.50560245     -10.41750311
  24  11 5 35     205.23303758     101.99582721     -10.19973751
  25  8 14 39     233.21115115      43.43681824      -8.43637284
  26  11 2 40     235.98021285     118.45354277      -9.98996135
  27  12 9 19     112.92672013      73.33378667     -10.37497493
  28  5 3 18     105.93632705     110.73283004      -7.10312333
  29  8 4 21     125.81422377     106.43654012      -8.72317284
  30  5 2 39     233.47766052     114.07943216      -7.13877677
  31  8 12 20     114.94871874      57.94491349      -8.46417828
  32  8 10 28     164.00835900      68.83969882      -8.47460964
  33  8 5 41     245.59920858     100.62405249      -8.34867372
  34  8 15 31     181.04112332      36.00057532      -8.36698233
  35  5 11 35     205.16532132      61.77194385      -6.88576496
  36  8 9 25     147.95837591      75.48789876      -8.68923366
  37  4 21 35     204.34814101       1.95719272      -6.42891228
  38  12 9 38     226.86310213      74.77865743     -10.33322528
  39  5 12 18     102.77981816      54.64321997      -7.01756546
  40  11 5 36     214.02193587     101.72742664      -9.93461378
  41  6 15 42     250.30688551      39.72084519      -7.71668895
  42  12 3 36     213.72117947     112.50397727     -10.45336082
  43  7 9 24     142.62748679      72.81000913      -8.07617723
  44  12 18 37     219.97045792      23.18528541     -10.48641920
  45  3 5 20     115.69035300      99.27908346      -6.21962797
  46  4 9 29     168.07981598      77.11592831      -6.42569085
  47  5 20 40     238.10651647       6.79256828      -6.91814876
  48  4 13 25     144.62935055      52.94440368      -6.38126556
  49  11 7 24     143.74185147      85.56267341      -9.84498796
  50  11 2 20     119.76434296     115.74382403      -9.79021469
  51  10 21 18     102.94377760       0.05065514      -9.65565747
  52  6 1 34     203.18300101     123.07165278      -7.69876844
  53  4 14 23     132.16747363      47.44911966      -6.42385727
  54  3 1 24     140.36309222     122.69672583      -6.04520170
  55  5 9 30     174.71912021      76.19422872      -7.29994894
  56  5 4 19     108.11110686     104.43457181      -7.20689816
  57  4 9 32     187.26587603      72.41364959      -6.40818058
  58  8 8 21     122.30274339      79.13760099      -8.69606820
  59  10 16 32     189.57444161      35.98261149      -9.37567194
  60  10 9 35     206.36327072      73.94100092      -9.71956423
  61  11 6 20     115.55483318      94.50274223      -9.96244327
  62  5 3 28     162.93651015     108.14754339      -6.84325235
  63  11 6 35     205.54882397      95.14035575      -9.83943432
  64  10 7 28     162.95524897      87.95521330      -9.31066133
  65  4 3 18     107.59292576     108.92440819      -6.81409870
  66  9 15 31     181.45625370      40.65780560      -9.10235737
  67  3 7 34     200.89678607      84.51938764      -6.07912148
  68  10 12 30     178.26314503      56.81011599      -9.30012584
  69  7 13 41     243.57840291      48.14494676      -8.09855995
  70  9 13 32     189.15636616      51.76223009      -9.08489845
  71  4 13 40     237.31709112      50.58642752      -6.40152226
  72  9 15 21     120.89615503      39.99037719      -8.85049510
  73  8 8 21     121.17000478      78.36184036      -8.54883453
  74  7 12 38     222.72347588      54.21115612      -8.19468288
  75  3 1 27     160.44687922     122.69906182      -6.27501085
  76  12 7 21     125.13383796      85.40291232     -10.36072947
  77  5 17 41     240.98130422      25.01980594      -7.27404601
  78  4 13 26     152.86041068      53.76432718      -6.49041471
  79  12 14 36     214.12343968      43.26162621     -10.37720749
  80  7 5 36     210.35169377     100.50248930      -8.15076939
  81  9 3 40     234.26252586     110.87978436      -9.03304585
  82  4 3 33     194.79817547     113.88408643      -6.63229806
  83  7 8 36     214.14324997      83.50269636      -7.98667552
  84  6 16 26     153.03254798      34.04624102      -7.39397459
  85  8 16 24     141.02903955      31.79820439      -8.46215925
  86  6 4 40     236.17470517     107.71714078      -7.67260933
  87  9 10 28     165.06986086      66.49204543      -9.19456417
  88  12 5 42     246.65568717     101.07229658     -10.45793140
  89  7 9 34     200.84310767      72.13355317      -7.90459829
  90  9 6 33     194.49774947      92.37595819      -9.09850104
  91  7 11 20     117.44138789      65.39546506      -8.17229581
  92  4 5 41     244.32236732      97.13137272      -6.37617366
  93  8 10 29     168.38664429      71.67610683      -8.58086345
  94  10 12 32     187.91522139      58.67944470      -9.38671784
  95  9 14 28     162.03679402      43.17880240      -8.82917807
  96  3 20 23     136.02810100       8.59437790      -6.30662498
  97  3 14 40     237.31368713      47.61844660      -6.28409228
  98  4 20 32     187.19928197      10.03288579      -6.70051523
  99  3 1 17     100.43628971     123.83495633      -6.35907069
  100  10 18 33     193.80602687      22.88321927      -9.47444870
  101  11 4 25     149.65002507     102.29419591     -10.10633006
  102  10 3 31     180.11283154     110.24516726      -9.47710619
  103  9 7 40     234.66319910      86.74006980      -9.08530523
  104  10 10 26     154.30500352      71.75629601      -9.71355356
  105  6 18 40     238.09734294      20.28240104      -7.76807627
  106  8 12 33     194.75073760      58.82688287      -8.63886113
  107  4 14 18     102.40482891      43.49167845      -6.82641820
  108  10 17 41     241.27445953      28.35503468      -9.66691321
  109  6 9 35     205.01633146      74.65649546      -7.34155562
  110  10 15 42     251.59307327      39.34599955      -9.41839969
  111  7 2 22     126.19575727     115.45449974      -7.91601410
  112  9 2 21     120.84463394     114.61407614      -8.92955581
  113  12 16 41     241.75451038      32.39690502     -10.24366020
  114  10 19 35     205.91636055      13.97230389      -9.47033848
  115  6 17 19     110.03202625      24.31330423      -7.51153850
  116  7 11 36     214.83038400      62.94760551      -8.26237458
  117  7 6 36     214.58918065      91.80179416      -8.16442807
  118  10 17 41     240.29972940      26.23249924      -9.71375932
  119  7 16 35     208.15176331      31.25222836      -7.93177867
  120  3 4 20     118.88918622     107.31065624      -6.01460959
  121  4 13 18     103.02178034      52.39693850      -6.82424201
  122  7 9 18     103.98407001      77.70231846      -7.82532319
  123  3 17 18     104.30258618      29.44193354      -6.10804919
  124  4 19 23     137.42408228      12.84787469      -6.44296837
  125  7 11 39     230.72424820      64.99798414      -7.81976430
  126  12 11 31     181.90232178      60.11976437     -10.35408154
  127  11 18 31     184.02894076      19.23662716     -10.07890307
  128  12 8 38     227.98869564      78.34758520     -10.20582728
  129  8 10 20     118.87434390      68.54527497      -8.46720083
  130  9 8 24     142.43591921      82.42130572      -8.81054325
  131  3 18 32     189.03540926      18.21273806      -6.11092485
  132  11 6 42     247.37855374      94.69250496      -9.74407518
  133  3 17 31     185.27659333      27.97819161      -6.12245584
  134  5 11 18     102.83438798      65.43832987      -7.04636309
  135  4 5 37     221.69616625      98.94729956      -6.79092972
  136  6 21 23     135.41208962       2.81363393      -7.65322882
  137  6 15 38     222.67998973      40.86966993      -7.49070253
  138  8 3 27     158.95481790     109.98821943      -8.35402950
  139  12 4 39     231.25836189     106.43341056     -10.44088639
  140  9 10 36     213.56248970      67.84351467      -8.91147262
  141  8 3 31     184.54851557     109.19264254      -8.28567689
  142  5 2 21     120.74119430     119.67555491      -7.21458955
  143  8 4 19     109.10748881     104.12728170      -8.39117246
  144  8 4 20     118.44420527     107.61854592      -8.44167788
  145  11 19 18     106.77188554      12.44166863      -9.88051767
  146  12 8 20     116.33910762      82.06434587     -10.45100070
  147  5 7 23     134.30781947      88.64314051      -7.08774783
  148  9 9 35     208.37432502      76.89034239      -9.06021223
  149  3 5 31     185.07698127     100.75152298      -6.07027447
  150  10 21 17     101.90850898       4.35597370      -9.50894598
  151  9 5 19     110.94009051      97.05008055      -8.97581389
  152  7 6 42     247.02600216      92.19780369      -8.14246739
  153  5 16 32     186.35127021      32.72199756      -7.10298844
  154  8 16 22     130.90057167      32.39073165      -8.41263997
  155  11 8 24     138.35351317      79.67021800      -9.93829856
  156  9 14 36     213.06152982      43.50748016      -9.09374380
  157  7 5 22     129.70528113     100.37017343      -8.22966374
  158  6 12 32     188.36655695      56.21442523      -7.46767946
  159  5 5 42     247.44303834      98.62642626      -7.03432520
  160  11 1 39     228.71797783     124.79944474      -9.91348899
  161  12 15 23     136.45685939      37.83129078     -10.39688191
  162  7 18 30     175.05299657      18.01873436      -8.16412955
  163  5 3 33     194.23326919     113.56486298      -6.85505080
  164  12 10 38     226.00509673      68.23648174     -10.44328305
  165  6 1 21     123.83229199     122.81728673      -7.47388570
  166  6 8 18     102.82358273      80.21215440      -7.40936298
  167  8 1 19     110.64336585     125.23304110      -8.47838961
  168  4 10 29     173.92445686      68.80492132      -6.38345091
  169  6 10 33     192.16207817      66.32966767      -7.60037512
  170  12 19 32     186.46541844      17.06391579     -10.47642073
  171  8 14 25     148.23908622      44.81885154      -8.32007200
  172  4 21 42     250.26965547       3.30353948      -6.63306987
  173  4 18 32     188.12127333      20.20979262      -6.76320193
  174  6 6 27     157.78145824      93.95028628      -7.57880611
  175  6 21 31     183.74412931       3.83036093      -7.46835709
  176  7 14 36     213.29083350      46.18443025      -7.89675189
  177  10 3 34     201.72339980     108.65562786      -9.26646101
  178  7 7 24     140.26777276      87.27739241      -7.97761504
  179  6 7 19     110.08289483      87.05870990      -7.47721597
  180  9 18 27     156.25279808      23.76823692      -8.91406666
  181  4 12 33     195.71706107      55.67993937      -6.64877235
  182  10 9 22     131.94644951      73.27875333      -9.62233131
  183  5 1 36     214.41884417     124.70871517      -7.13705635
  184  9 17 19     110.11354517      25.69218438      -9.19678764
  185  5 16 24     139.56789498      31.21434562      -7.01790321
  186  8 16 38     222.32269369      33.03380856      -8.57518202
  187  5 6 22     129.40201096      94.52172408      -6.86535716
  188  9 12 33     197.19805389      57.57889126      -8.90909312
  189  10 20 30     179.74988699       7.17310924      -9.53838043
  190  5 11 41     240.57081150      64.07304632      -7.04721971
  191  9 17 24     140.02110911      26.70698075      -9.11111124
  192  5 5 19     110.02608578     100.62413484      -7.20039720
  193  5 15 36     211.73002642      37.46375407      -7.14987081
  194  10 21 37     217.37106049       3.47835751      -9.50371485
  195  10 9 40     237.98800958      74.77248863      -9.53649538
  196  10 4 41     241.65975452     106.32389405      -9.60473434
  197  11 13 18     102.12063909      48.00803163      -9.85866748
  198  9 6 23     135.62303709      94.48214715      -8.80312830
  199  12 11 33     193.75031026      64.40382627     -10.38017452
  200  11 10 41     244.25048074      68.15992743     -10.00085834
END packagedata

BEGIN period  1
  FIRST
END period  1

