# File generated by Flopy version 3.8.2 on 01/07/2025 at 13:35:53.
BEGIN options
END options

BEGIN timing
  TDIS6  sim_test.tdis
END timing

BEGIN models
  gwf6  test.nam  test
END models

BEGIN exchanges
END exchanges

BEGIN solutiongroup  1
  ims6  sim_test.ims  test
END solutiongroup  1

