# # MPBAS package for MODPATH 7 generated by Flopy 3.8.2
0                   # DEFAULTIFACECOUNT
CONSTANT    2.000000E-01                           #porosity layer 1              
CONSTANT    2.000000E-01                           #porosity layer 2              
CONSTANT    2.000000E-01                           #porosity layer 3              
CONSTANT    2.000000E-01                           #porosity layer 4              
CONSTANT    2.000000E-01                           #porosity layer 5              
CONSTANT    2.000000E-01                           #porosity layer 6              
CONSTANT    2.000000E-01                           #porosity layer 7              
CONSTANT    2.000000E-01                           #porosity layer 8              
CONSTANT    2.000000E-01                           #porosity layer 9              
CONSTANT    2.000000E-01                           #porosity layer 10             
CONSTANT    2.000000E-01                           #porosity layer 11             
CONSTANT    2.000000E-01                           #porosity layer 12             
CONSTANT    2.000000E-01                           #porosity layer 13             
CONSTANT    2.000000E-01                           #porosity layer 14             
CONSTANT    2.000000E-01                           #porosity layer 15             
CONSTANT    2.000000E-01                           #porosity layer 16             
CONSTANT    2.000000E-01                           #porosity layer 17             
CONSTANT    2.000000E-01                           #porosity layer 18             
CONSTANT    2.000000E-01                           #porosity layer 19             
CONSTANT    2.000000E-01                           #porosity layer 20             
CONSTANT    2.000000E-01                           #porosity layer 21             
CONSTANT    2.000000E-01                           #porosity layer 22             
CONSTANT    2.000000E-01                           #porosity layer 23             
CONSTANT    2.000000E-01                           #porosity layer 24             
CONSTANT    2.000000E-01                           #porosity layer 25             
CONSTANT    2.000000E-01                           #porosity layer 26             
CONSTANT    2.000000E-01                           #porosity layer 27             
CONSTANT    2.000000E-01                           #porosity layer 28             
CONSTANT    2.000000E-01                           #porosity layer 29             
CONSTANT    2.000000E-01                           #porosity layer 30             
CONSTANT    2.000000E-01                           #porosity layer 31             
CONSTANT    2.000000E-01                           #porosity layer 32             
CONSTANT    2.000000E-01                           #porosity layer 33             
CONSTANT    2.000000E-01                           #porosity layer 34             
CONSTANT    2.000000E-01                           #porosity layer 35             
CONSTANT    2.000000E-01                           #porosity layer 36             
CONSTANT    2.000000E-01                           #porosity layer 37             
CONSTANT    2.000000E-01                           #porosity layer 38             
CONSTANT    2.000000E-01                           #porosity layer 39             
CONSTANT    2.000000E-01                           #porosity layer 40             
CONSTANT    2.000000E-01                           #porosity layer 41             
CONSTANT    2.000000E-01                           #porosity layer 42             
CONSTANT    2.000000E-01                           #porosity layer 43             
CONSTANT    2.000000E-01                           #porosity layer 44             
CONSTANT    2.000000E-01                           #porosity layer 45             
CONSTANT    2.000000E-01                           #porosity layer 46             
CONSTANT    2.000000E-01                           #porosity layer 47             
CONSTANT    2.000000E-01                           #porosity layer 48             
CONSTANT    2.000000E-01                           #porosity layer 49             
CONSTANT    2.000000E-01                           #porosity layer 50             
CONSTANT    2.000000E-01                           #porosity layer 51             
CONSTANT    2.000000E-01                           #porosity layer 52             
CONSTANT    2.000000E-01                           #porosity layer 53             
CONSTANT    2.000000E-01                           #porosity layer 54             
CONSTANT    2.000000E-01                           #porosity layer 55             
CONSTANT    2.000000E-01                           #porosity layer 56             
CONSTANT    2.000000E-01                           #porosity layer 57             
CONSTANT    2.000000E-01                           #porosity layer 58             
CONSTANT    2.000000E-01                           #porosity layer 59             
CONSTANT    2.000000E-01                           #porosity layer 60             
CONSTANT    2.000000E-01                           #porosity layer 61             
CONSTANT    2.000000E-01                           #porosity layer 62             
CONSTANT    2.000000E-01                           #porosity layer 63             
CONSTANT    2.000000E-01                           #porosity layer 64             
CONSTANT    2.000000E-01                           #porosity layer 65             
CONSTANT    2.000000E-01                           #porosity layer 66             
CONSTANT    2.000000E-01                           #porosity layer 67             
CONSTANT    2.000000E-01                           #porosity layer 68             
CONSTANT    2.000000E-01                           #porosity layer 69             
CONSTANT    2.000000E-01                           #porosity layer 70             
