MODPATH_TIMESERIES_FILE         7         2
    2   0.0000000000E+00  0.0000000000E+00  0.0000000000E+00  0.0000000000E+00
END HEADER
       0       1  0.0000000000E+00         1    1         1    284668  0.1333333000E+00  0.5000000000E+00  0.1017255000E-03  0.7069999995E+02  0.9975000000E+02 -0.9000000001E+01        30
       0       1  0.0000000000E+00         2    2         1    323868  0.1333333000E+00  0.5000000000E+00  0.6667599000E+00  0.7069999995E+02  0.9975000000E+02 -0.9499999998E+01        34
       0       1  0.0000000000E+00         3    3         1    353268  0.1333333000E+00  0.5000000000E+00  0.3334181000E+00  0.7069999995E+02  0.9975000000E+02 -0.1000000000E+02        37
       0       1  0.0000000000E+00         4    4         1    382668  0.1333333000E+00  0.5000000000E+00  0.7629414000E-04  0.7069999995E+02  0.9975000000E+02 -0.1050000000E+02        40
       1       1  0.1000000000E-01         1    1         1    284668  0.1333332996E+00  0.5000000000E+00  0.1017271846E-03  0.7069999995E+02  0.9975000000E+02 -0.9000000001E+01        30
       1       1  0.1000000000E-01         2    2         1    323868  0.1333332942E+00  0.4999999988E+00  0.6667598789E+00  0.7069999994E+02  0.9975000000E+02 -0.9500000002E+01        34
       1       1  0.1000000000E-01         3    3         1    353268  0.1333331353E+00  0.4999999863E+00  0.3334181214E+00  0.7069999970E+02  0.9974999998E+02 -0.9999999998E+01        37
       1       1  0.1000000000E-01         4    4         1    382668  0.1333332973E+00  0.4999999983E+00  0.7629414584E-04  0.7069999995E+02  0.9975000000E+02 -0.1050000000E+02        40
       2       1  0.2000000000E-01         1    1         1    284668  0.1333332991E+00  0.5000000000E+00  0.1017288692E-03  0.7069999995E+02  0.9975000000E+02 -0.9000000001E+01        30
       2       1  0.2000000000E-01         2    2         1    323868  0.1333332884E+00  0.4999999975E+00  0.6667598578E+00  0.7069999993E+02  0.9975000000E+02 -0.9500000005E+01        34
       2       1  0.2000000000E-01         3    3         1    353268  0.1333329706E+00  0.4999999727E+00  0.3334181428E+00  0.7069999946E+02  0.9974999996E+02 -0.9999999995E+01        37
       2       1  0.2000000000E-01         4    4         1    382668  0.1333332945E+00  0.4999999965E+00  0.7629415168E-04  0.7069999994E+02  0.9974999999E+02 -0.1050000000E+02        40
       3       1  0.3000000000E-01         1    1         1    284668  0.1333332987E+00  0.5000000000E+00  0.1017305538E-03  0.7069999995E+02  0.9975000000E+02 -0.9000000000E+01        30
       3       1  0.3000000000E-01         2    2         1    323868  0.1333332826E+00  0.4999999963E+00  0.6667598367E+00  0.7069999992E+02  0.9974999999E+02 -0.9500000008E+01        34
       3       1  0.3000000000E-01         3    3         1    353268  0.1333328059E+00  0.4999999590E+00  0.3334181643E+00  0.7069999921E+02  0.9974999994E+02 -0.9999999992E+01        37
       3       1  0.3000000000E-01         4    4         1    382668  0.1333332918E+00  0.4999999948E+00  0.7629415752E-04  0.7069999994E+02  0.9974999999E+02 -0.1050000000E+02        40
       4       1  0.4000000000E-01         1    1         1    284668  0.1333332983E+00  0.5000000000E+00  0.1017322384E-03  0.7069999995E+02  0.9975000000E+02 -0.9000000000E+01        30
       4       1  0.4000000000E-01         2    2         1    323868  0.1333332768E+00  0.4999999950E+00  0.6667598155E+00  0.7069999992E+02  0.9974999999E+02 -0.9500000011E+01        34
       4       1  0.4000000000E-01         3    3         1    353268  0.1333326411E+00  0.4999999454E+00  0.3334181857E+00  0.7069999896E+02  0.9974999992E+02 -0.9999999989E+01        37
       4       1  0.4000000000E-01         4    4         1    382668  0.1333332891E+00  0.4999999931E+00  0.7629416336E-04  0.7069999993E+02  0.9974999999E+02 -0.1050000000E+02        40
       5       1  0.5000000000E-01         1    1         1    284668  0.1333332978E+00  0.5000000000E+00  0.1017339230E-03  0.7069999995E+02  0.9975000000E+02 -0.9000000000E+01        30
       5       1  0.5000000000E-01         2    2         1    323868  0.1333332710E+00  0.4999999938E+00  0.6667597944E+00  0.7069999991E+02  0.9974999999E+02 -0.9500000014E+01        34
       5       1  0.5000000000E-01         3    3         1    353268  0.1333324764E+00  0.4999999317E+00  0.3334182071E+00  0.7069999871E+02  0.9974999990E+02 -0.9999999986E+01        37
       5       1  0.5000000000E-01         4    4         1    382668  0.1333332864E+00  0.4999999914E+00  0.7629416920E-04  0.7069999993E+02  0.9974999999E+02 -0.1050000000E+02        40
       6       1  0.6000000000E-01         1    1         1    284668  0.1333332974E+00  0.5000000000E+00  0.1017356077E-03  0.7069999995E+02  0.9975000000E+02 -0.9000000000E+01        30
       6       1  0.6000000000E-01         2    2         1    323868  0.1333332652E+00  0.4999999925E+00  0.6667597733E+00  0.7069999990E+02  0.9974999999E+02 -0.9500000017E+01        34
       6       1  0.6000000000E-01         3    3         1    353268  0.1333323117E+00  0.4999999181E+00  0.3334182285E+00  0.7069999847E+02  0.9974999988E+02 -0.9999999982E+01        37
       6       1  0.6000000000E-01         4    4         1    382668  0.1333332836E+00  0.4999999896E+00  0.7629417504E-04  0.7069999993E+02  0.9974999998E+02 -0.1050000000E+02        40
       7       1  0.7000000000E-01         1    1         1    284668  0.1333332969E+00  0.5000000000E+00  0.1017372923E-03  0.7069999995E+02  0.9975000000E+02 -0.8999999999E+01        30
       7       1  0.7000000000E-01         2    2         1    323868  0.1333332594E+00  0.4999999913E+00  0.6667597522E+00  0.7069999989E+02  0.9974999999E+02 -0.9500000021E+01        34
       7       1  0.7000000000E-01         3    3         1    353268  0.1333321470E+00  0.4999999044E+00  0.3334182499E+00  0.7069999822E+02  0.9974999986E+02 -0.9999999979E+01        37
       7       1  0.7000000000E-01         4    4         1    382668  0.1333332809E+00  0.4999999879E+00  0.7629418088E-04  0.7069999992E+02  0.9974999998E+02 -0.1050000000E+02        40
       8       1  0.8000000000E-01         1    1         1    284668  0.1333332965E+00  0.5000000001E+00  0.1017389769E-03  0.7069999994E+02  0.9975000000E+02 -0.8999999999E+01        30
       8       1  0.8000000000E-01         2    2         1    323868  0.1333332536E+00  0.4999999900E+00  0.6667597311E+00  0.7069999988E+02  0.9974999999E+02 -0.9500000024E+01        34
       8       1  0.8000000000E-01         3    3         1    353268  0.1333319823E+00  0.4999998908E+00  0.3334182713E+00  0.7069999797E+02  0.9974999984E+02 -0.9999999976E+01        37
       8       1  0.8000000000E-01         4    4         1    382668  0.1333332782E+00  0.4999999862E+00  0.7629418672E-04  0.7069999992E+02  0.9974999998E+02 -0.1050000000E+02        40
       9       1  0.9000000000E-01         1    1         1    284668  0.1333332961E+00  0.5000000001E+00  0.1017406615E-03  0.7069999994E+02  0.9975000000E+02 -0.8999999999E+01        30
       9       1  0.9000000000E-01         2    2         1    323868  0.1333332478E+00  0.4999999888E+00  0.6667597100E+00  0.7069999987E+02  0.9974999998E+02 -0.9500000027E+01        34
       9       1  0.9000000000E-01         3    3         1    353268  0.1333318176E+00  0.4999998771E+00  0.3334182928E+00  0.7069999773E+02  0.9974999982E+02 -0.9999999973E+01        37
       9       1  0.9000000000E-01         4    4         1    382668  0.1333332755E+00  0.4999999844E+00  0.7629419256E-04  0.7069999991E+02  0.9974999998E+02 -0.1050000000E+02        40
      10       1  0.1000000000E+00         1    1         1    284668  0.1333332956E+00  0.5000000001E+00  0.1017423461E-03  0.7069999994E+02  0.9975000000E+02 -0.8999999999E+01        30
      10       1  0.1000000000E+00         2    2         1    323868  0.1333332420E+00  0.4999999875E+00  0.6667596889E+00  0.7069999986E+02  0.9974999998E+02 -0.9500000030E+01        34
      10       1  0.1000000000E+00         3    3         1    353268  0.1333316528E+00  0.4999998635E+00  0.3334183142E+00  0.7069999748E+02  0.9974999980E+02 -0.9999999970E+01        37
      10       1  0.1000000000E+00         4    4         1    382668  0.1333332727E+00  0.4999999827E+00  0.7629419840E-04  0.7069999991E+02  0.9974999997E+02 -0.1050000000E+02        40
      11       1  0.1100000000E+00         1    1         1    284668  0.1333332952E+00  0.5000000001E+00  0.1017440307E-03  0.7069999994E+02  0.9975000000E+02 -0.8999999998E+01        30
      11       1  0.1100000000E+00         2    2         1    323868  0.1333332362E+00  0.4999999863E+00  0.6667596678E+00  0.7069999985E+02  0.9974999998E+02 -0.9500000033E+01        34
      11       1  0.1100000000E+00         3    3         1    353268  0.1333314881E+00  0.4999998498E+00  0.3334183356E+00  0.7069999723E+02  0.9974999977E+02 -0.9999999966E+01        37
      11       1  0.1100000000E+00         4    4         1    382668  0.1333332700E+00  0.4999999810E+00  0.7629420424E-04  0.7069999991E+02  0.9974999997E+02 -0.1050000000E+02        40
      12       1  0.1200000000E+00         1    1         1    284668  0.1333332948E+00  0.5000000001E+00  0.1017457153E-03  0.7069999994E+02  0.9975000000E+02 -0.8999999998E+01        30
      12       1  0.1200000000E+00         2    2         1    323868  0.1333332304E+00  0.4999999851E+00  0.6667596466E+00  0.7069999985E+02  0.9974999998E+02 -0.9500000036E+01        34
      12       1  0.1200000000E+00         3    3         1    353268  0.1333313234E+00  0.4999998362E+00  0.3334183570E+00  0.7069999699E+02  0.9974999975E+02 -0.9999999963E+01        37
      12       1  0.1200000000E+00         4    4         1    382668  0.1333332673E+00  0.4999999792E+00  0.7629421008E-04  0.7069999990E+02  0.9974999997E+02 -0.1050000000E+02        40
      13       1  0.1300000000E+00         1    1         1    284668  0.1333332943E+00  0.5000000001E+00  0.1017473999E-03  0.7069999994E+02  0.9975000000E+02 -0.8999999998E+01        30
      13       1  0.1300000000E+00         2    2         1    323868  0.1333332246E+00  0.4999999838E+00  0.6667596255E+00  0.7069999984E+02  0.9974999998E+02 -0.9500000040E+01        34
      13       1  0.1300000000E+00         3    3         1    353268  0.1333311587E+00  0.4999998225E+00  0.3334183784E+00  0.7069999674E+02  0.9974999973E+02 -0.9999999960E+01        37
      13       1  0.1300000000E+00         4    4         1    382668  0.1333332646E+00  0.4999999775E+00  0.7629421593E-04  0.7069999990E+02  0.9974999997E+02 -0.1050000000E+02        40
      14       1  0.1400000000E+00         1    1         1    284668  0.1333332939E+00  0.5000000001E+00  0.1017490845E-03  0.7069999994E+02  0.9975000000E+02 -0.8999999998E+01        30
      14       1  0.1400000000E+00         2    2         1    323868  0.1333332188E+00  0.4999999826E+00  0.6667596044E+00  0.7069999983E+02  0.9974999997E+02 -0.9500000043E+01        34
      14       1  0.1400000000E+00         3    3         1    353268  0.1333309940E+00  0.4999998089E+00  0.3334183998E+00  0.7069999649E+02  0.9974999971E+02 -0.9999999957E+01        37
      14       1  0.1400000000E+00         4    4         1    382668  0.1333332618E+00  0.4999999758E+00  0.7629422177E-04  0.7069999989E+02  0.9974999996E+02 -0.1050000000E+02        40
      15       1  0.1500000000E+00         1    1         1    284668  0.1333332935E+00  0.5000000001E+00  0.1017507691E-03  0.7069999994E+02  0.9975000000E+02 -0.8999999997E+01        30
      15       1  0.1500000000E+00         2    2         1    323868  0.1333332130E+00  0.4999999813E+00  0.6667595833E+00  0.7069999982E+02  0.9974999997E+02 -0.9500000046E+01        34
      15       1  0.1500000000E+00         3    3         1    353268  0.1333308293E+00  0.4999997952E+00  0.3334184213E+00  0.7069999624E+02  0.9974999969E+02 -0.9999999954E+01        37
      15       1  0.1500000000E+00         4    4         1    382668  0.1333332591E+00  0.4999999741E+00  0.7629422761E-04  0.7069999989E+02  0.9974999996E+02 -0.1050000000E+02        40
      16       1  0.1600000000E+00         1    1         1    284668  0.1333332930E+00  0.5000000001E+00  0.1017524537E-03  0.7069999994E+02  0.9975000000E+02 -0.8999999997E+01        30
      16       1  0.1600000000E+00         2    2         1    323868  0.1333332072E+00  0.4999999801E+00  0.6667595622E+00  0.7069999981E+02  0.9974999997E+02 -0.9500000049E+01        34
      16       1  0.1600000000E+00         3    3         1    353268  0.1333306645E+00  0.4999997816E+00  0.3334184427E+00  0.7069999600E+02  0.9974999967E+02 -0.9999999950E+01        37
      16       1  0.1600000000E+00         4    4         1    382668  0.1333332564E+00  0.4999999723E+00  0.7629423345E-04  0.7069999988E+02  0.9974999996E+02 -0.1050000000E+02        40
      17       1  0.1700000000E+00         1    1         1    284668  0.1333332926E+00  0.5000000001E+00  0.1017541384E-03  0.7069999994E+02  0.9975000000E+02 -0.8999999997E+01        30
      17       1  0.1700000000E+00         2    2         1    323868  0.1333332014E+00  0.4999999788E+00  0.6667595411E+00  0.7069999980E+02  0.9974999997E+02 -0.9500000052E+01        34
      17       1  0.1700000000E+00         3    3         1    353268  0.1333304998E+00  0.4999997679E+00  0.3334184641E+00  0.7069999575E+02  0.9974999965E+02 -0.9999999947E+01        37
      17       1  0.1700000000E+00         4    4         1    382668  0.1333332537E+00  0.4999999706E+00  0.7629423929E-04  0.7069999988E+02  0.9974999996E+02 -0.1050000000E+02        40
      18       1  0.1800000000E+00         1    1         1    284668  0.1333332921E+00  0.5000000001E+00  0.1017558230E-03  0.7069999994E+02  0.9975000000E+02 -0.8999999997E+01        30
      18       1  0.1800000000E+00         2    2         1    323868  0.1333331956E+00  0.4999999776E+00  0.6667595200E+00  0.7069999979E+02  0.9974999997E+02 -0.9500000055E+01        34
      18       1  0.1800000000E+00         3    3         1    353268  0.1333303351E+00  0.4999997543E+00  0.3334184855E+00  0.7069999550E+02  0.9974999963E+02 -0.9999999944E+01        37
      18       1  0.1800000000E+00         4    4         1    382668  0.1333332509E+00  0.4999999689E+00  0.7629424513E-04  0.7069999988E+02  0.9974999995E+02 -0.1050000000E+02        40
      19       1  0.1900000000E+00         1    1         1    284668  0.1333332917E+00  0.5000000001E+00  0.1017575076E-03  0.7069999994E+02  0.9975000000E+02 -0.8999999996E+01        30
      19       1  0.1900000000E+00         2    2         1    323868  0.1333331898E+00  0.4999999763E+00  0.6667594988E+00  0.7069999978E+02  0.9974999996E+02 -0.9500000059E+01        34
      19       1  0.1900000000E+00         3    3         1    353268  0.1333301704E+00  0.4999997406E+00  0.3334185069E+00  0.7069999526E+02  0.9974999961E+02 -0.9999999941E+01        37
      19       1  0.1900000000E+00         4    4         1    382668  0.1333332482E+00  0.4999999671E+00  0.7629425097E-04  0.7069999987E+02  0.9974999995E+02 -0.1050000000E+02        40
      20       1  0.2000000000E+00         1    1         1    284668  0.1333332913E+00  0.5000000001E+00  0.1017591922E-03  0.7069999994E+02  0.9975000000E+02 -0.8999999996E+01        30
      20       1  0.2000000000E+00         2    2         1    323868  0.1333331840E+00  0.4999999751E+00  0.6667594777E+00  0.7069999978E+02  0.9974999996E+02 -0.9500000062E+01        34
      20       1  0.2000000000E+00         3    3         1    353268  0.1333300057E+00  0.4999997270E+00  0.3334185284E+00  0.7069999501E+02  0.9974999959E+02 -0.9999999937E+01        37
      20       1  0.2000000000E+00         4    4         1    382668  0.1333332455E+00  0.4999999654E+00  0.7629425681E-04  0.7069999987E+02  0.9974999995E+02 -0.1050000000E+02        40
      21       1  0.2100000000E+00         1    1         1    284668  0.1333332908E+00  0.5000000001E+00  0.1017608768E-03  0.7069999994E+02  0.9975000000E+02 -0.8999999996E+01        30
      21       1  0.2100000000E+00         2    2         1    323868  0.1333331782E+00  0.4999999738E+00  0.6667594566E+00  0.7069999977E+02  0.9974999996E+02 -0.9500000065E+01        34
      21       1  0.2100000000E+00         3    3         1    353268  0.1333298410E+00  0.4999997133E+00  0.3334185498E+00  0.7069999476E+02  0.9974999957E+02 -0.9999999934E+01        37
      21       1  0.2100000000E+00         4    4         1    382668  0.1333332427E+00  0.4999999637E+00  0.7629426265E-04  0.7069999986E+02  0.9974999995E+02 -0.1050000000E+02        40
      22       1  0.2200000000E+00         1    1         1    284668  0.1333332904E+00  0.5000000001E+00  0.1017625614E-03  0.7069999994E+02  0.9975000000E+02 -0.8999999996E+01        30
      22       1  0.2200000000E+00         2    2         1    323868  0.1333331724E+00  0.4999999726E+00  0.6667594355E+00  0.7069999976E+02  0.9974999996E+02 -0.9500000068E+01        34
      22       1  0.2200000000E+00         3    3         1    353268  0.1333296762E+00  0.4999996997E+00  0.3334185712E+00  0.7069999451E+02  0.9974999955E+02 -0.9999999931E+01        37
      22       1  0.2200000000E+00         4    4         1    382668  0.1333332400E+00  0.4999999620E+00  0.7629426849E-04  0.7069999986E+02  0.9974999994E+02 -0.1050000000E+02        40
      23       1  0.2300000000E+00         1    1         1    284668  0.1333332900E+00  0.5000000001E+00  0.1017642460E-03  0.7069999993E+02  0.9975000000E+02 -0.8999999995E+01        30
      23       1  0.2300000000E+00         2    2         1    323868  0.1333331666E+00  0.4999999713E+00  0.6667594144E+00  0.7069999975E+02  0.9974999996E+02 -0.9500000071E+01        34
      23       1  0.2300000000E+00         3    3         1    353268  0.1333295115E+00  0.4999996860E+00  0.3334185926E+00  0.7069999427E+02  0.9974999953E+02 -0.9999999928E+01        37
      23       1  0.2300000000E+00         4    4         1    382668  0.1333332373E+00  0.4999999602E+00  0.7629427433E-04  0.7069999986E+02  0.9974999994E+02 -0.1050000000E+02        40
      24       1  0.2400000000E+00         1    1         1    284668  0.1333332895E+00  0.5000000002E+00  0.1017659306E-03  0.7069999993E+02  0.9975000000E+02 -0.8999999995E+01        30
      24       1  0.2400000000E+00         2    2         1    323868  0.1333331608E+00  0.4999999701E+00  0.6667593933E+00  0.7069999974E+02  0.9974999996E+02 -0.9500000074E+01        34
      24       1  0.2400000000E+00         3    3         1    353268  0.1333293468E+00  0.4999996724E+00  0.3334186140E+00  0.7069999402E+02  0.9974999951E+02 -0.9999999925E+01        37
      24       1  0.2400000000E+00         4    4         1    382668  0.1333332346E+00  0.4999999585E+00  0.7629428017E-04  0.7069999985E+02  0.9974999994E+02 -0.1050000000E+02        40
      25       1  0.2500000000E+00         1    1         1    284668  0.1333332891E+00  0.5000000002E+00  0.1017676152E-03  0.7069999993E+02  0.9975000000E+02 -0.8999999995E+01        30
      25       1  0.2500000000E+00         2    2         1    323868  0.1333331550E+00  0.4999999689E+00  0.6667593722E+00  0.7069999973E+02  0.9974999995E+02 -0.9500000078E+01        34
      25       1  0.2500000000E+00         3    3         1    353268  0.1333291821E+00  0.4999996587E+00  0.3334186354E+00  0.7069999377E+02  0.9974999949E+02 -0.9999999921E+01        37
      25       1  0.2500000000E+00         4    4         1    382668  0.1333332318E+00  0.4999999568E+00  0.7629428601E-04  0.7069999985E+02  0.9974999994E+02 -0.1050000000E+02        40
      26       1  0.2600000000E+00         1    1         1    284668  0.1333332887E+00  0.5000000002E+00  0.1017692998E-03  0.7069999993E+02  0.9975000000E+02 -0.8999999995E+01        30
      26       1  0.2600000000E+00         2    2         1    323868  0.1333331492E+00  0.4999999676E+00  0.6667593511E+00  0.7069999972E+02  0.9974999995E+02 -0.9500000081E+01        34
      26       1  0.2600000000E+00         3    3         1    353268  0.1333290174E+00  0.4999996451E+00  0.3334186569E+00  0.7069999353E+02  0.9974999947E+02 -0.9999999918E+01        37
      26       1  0.2600000000E+00         4    4         1    382668  0.1333332291E+00  0.4999999550E+00  0.7629429185E-04  0.7069999984E+02  0.9974999993E+02 -0.1050000000E+02        40
      27       1  0.2700000000E+00         1    1         1    284668  0.1333332882E+00  0.5000000002E+00  0.1017709844E-03  0.7069999993E+02  0.9975000000E+02 -0.8999999994E+01        30
      27       1  0.2700000000E+00         2    2         1    323868  0.1333331434E+00  0.4999999664E+00  0.6667593299E+00  0.7069999972E+02  0.9974999995E+02 -0.9500000084E+01        34
      27       1  0.2700000000E+00         3    3         1    353268  0.1333288527E+00  0.4999996314E+00  0.3334186783E+00  0.7069999328E+02  0.9974999945E+02 -0.9999999915E+01        37
      27       1  0.2700000000E+00         4    4         1    382668  0.1333332264E+00  0.4999999533E+00  0.7629429769E-04  0.7069999984E+02  0.9974999993E+02 -0.1050000000E+02        40
      28       1  0.2800000000E+00         1    1         1    284668  0.1333332878E+00  0.5000000002E+00  0.1017726690E-03  0.7069999993E+02  0.9975000000E+02 -0.8999999994E+01        30
      28       1  0.2800000000E+00         2    2         1    323868  0.1333331376E+00  0.4999999651E+00  0.6667593088E+00  0.7069999971E+02  0.9974999995E+02 -0.9500000087E+01        34
      28       1  0.2800000000E+00         3    3         1    353268  0.1333286879E+00  0.4999996178E+00  0.3334186997E+00  0.7069999303E+02  0.9974999943E+02 -0.9999999912E+01        37
      28       1  0.2800000000E+00         4    4         1    382668  0.1333332237E+00  0.4999999516E+00  0.7629430353E-04  0.7069999984E+02  0.9974999993E+02 -0.1050000000E+02        40
      29       1  0.2900000000E+00         1    1         1    284668  0.1333332874E+00  0.5000000002E+00  0.1017743537E-03  0.7069999993E+02  0.9975000000E+02 -0.8999999994E+01        30
      29       1  0.2900000000E+00         2    2         1    323868  0.1333331318E+00  0.4999999639E+00  0.6667592877E+00  0.7069999970E+02  0.9974999995E+02 -0.9500000090E+01        34
      29       1  0.2900000000E+00         3    3         1    353268  0.1333285232E+00  0.4999996041E+00  0.3334187211E+00  0.7069999278E+02  0.9974999941E+02 -0.9999999909E+01        37
      29       1  0.2900000000E+00         4    4         1    382668  0.1333332209E+00  0.4999999498E+00  0.7629430937E-04  0.7069999983E+02  0.9974999992E+02 -0.1050000000E+02        40
      30       1  0.3000000000E+00         1    1         1    284668  0.1333332869E+00  0.5000000002E+00  0.1017760383E-03  0.7069999993E+02  0.9975000000E+02 -0.8999999994E+01        30
      30       1  0.3000000000E+00         2    2         1    323868  0.1333331260E+00  0.4999999626E+00  0.6667592666E+00  0.7069999969E+02  0.9974999994E+02 -0.9500000093E+01        34
      30       1  0.3000000000E+00         3    3         1    353268  0.1333283585E+00  0.4999995905E+00  0.3334187425E+00  0.7069999254E+02  0.9974999939E+02 -0.9999999905E+01        37
      30       1  0.3000000000E+00         4    4         1    382668  0.1333332182E+00  0.4999999481E+00  0.7629431521E-04  0.7069999983E+02  0.9974999992E+02 -0.1050000000E+02        40
      31       1  0.3100000000E+00         1    1         1    284668  0.1333332865E+00  0.5000000002E+00  0.1017777229E-03  0.7069999993E+02  0.9975000000E+02 -0.8999999993E+01        30
      31       1  0.3100000000E+00         2    2         1    323868  0.1333331202E+00  0.4999999614E+00  0.6667592455E+00  0.7069999968E+02  0.9974999994E+02 -0.9500000097E+01        34
      31       1  0.3100000000E+00         3    3         1    353268  0.1333281938E+00  0.4999995768E+00  0.3334187639E+00  0.7069999229E+02  0.9974999937E+02 -0.9999999902E+01        37
      31       1  0.3100000000E+00         4    4         1    382668  0.1333332155E+00  0.4999999464E+00  0.7629432105E-04  0.7069999982E+02  0.9974999992E+02 -0.1050000000E+02        40
      32       1  0.3200000000E+00         1    1         1    284668  0.1333332860E+00  0.5000000002E+00  0.1017794075E-03  0.7069999993E+02  0.9975000000E+02 -0.8999999993E+01        30
      32       1  0.3200000000E+00         2    2         1    323868  0.1333331144E+00  0.4999999601E+00  0.6667592244E+00  0.7069999967E+02  0.9974999994E+02 -0.9500000100E+01        34
      32       1  0.3200000000E+00         3    3         1    353268  0.1333280291E+00  0.4999995632E+00  0.3334187854E+00  0.7069999204E+02  0.9974999934E+02 -0.9999999899E+01        37
      32       1  0.3200000000E+00         4    4         1    382668  0.1333332128E+00  0.4999999447E+00  0.7629432689E-04  0.7069999982E+02  0.9974999992E+02 -0.1050000000E+02        40
      33       1  0.3300000000E+00         1    1         1    284668  0.1333332856E+00  0.5000000002E+00  0.1017810921E-03  0.7069999993E+02  0.9975000000E+02 -0.8999999993E+01        30
      33       1  0.3300000000E+00         2    2         1    323868  0.1333331086E+00  0.4999999589E+00  0.6667592033E+00  0.7069999966E+02  0.9974999994E+02 -0.9500000103E+01        34
      33       1  0.3300000000E+00         3    3         1    353268  0.1333278644E+00  0.4999995495E+00  0.3334188068E+00  0.7069999180E+02  0.9974999932E+02 -0.9999999896E+01        37
      33       1  0.3300000000E+00         4    4         1    382668  0.1333332100E+00  0.4999999429E+00  0.7629433273E-04  0.7069999982E+02  0.9974999991E+02 -0.1050000000E+02        40
      34       1  0.3400000000E+00         1    1         1    284668  0.1333332852E+00  0.5000000002E+00  0.1017827767E-03  0.7069999993E+02  0.9975000000E+02 -0.8999999993E+01        30
      34       1  0.3400000000E+00         2    2         1    323868  0.1333331028E+00  0.4999999576E+00  0.6667591821E+00  0.7069999965E+02  0.9974999994E+02 -0.9500000106E+01        34
      34       1  0.3400000000E+00         3    3         1    353268  0.1333276996E+00  0.4999995359E+00  0.3334188282E+00  0.7069999155E+02  0.9974999930E+02 -0.9999999892E+01        37
      34       1  0.3400000000E+00         4    4         1    382668  0.1333332073E+00  0.4999999412E+00  0.7629433857E-04  0.7069999981E+02  0.9974999991E+02 -0.1050000000E+02        40
      35       1  0.3500000000E+00         1    1         1    284668  0.1333332847E+00  0.5000000002E+00  0.1017844613E-03  0.7069999993E+02  0.9975000000E+02 -0.8999999992E+01        30
      35       1  0.3500000000E+00         2    2         1    323868  0.1333330970E+00  0.4999999564E+00  0.6667591610E+00  0.7069999965E+02  0.9974999993E+02 -0.9500000109E+01        34
      35       1  0.3500000000E+00         3    3         1    353268  0.1333275349E+00  0.4999995222E+00  0.3334188496E+00  0.7069999130E+02  0.9974999928E+02 -0.9999999889E+01        37
      35       1  0.3500000000E+00         4    4         1    382668  0.1333332046E+00  0.4999999395E+00  0.7629434441E-04  0.7069999981E+02  0.9974999991E+02 -0.1050000000E+02        40
      36       1  0.3600000000E+00         1    1         1    284668  0.1333332843E+00  0.5000000002E+00  0.1017861459E-03  0.7069999993E+02  0.9975000000E+02 -0.8999999992E+01        30
      36       1  0.3600000000E+00         2    2         1    323868  0.1333330912E+00  0.4999999552E+00  0.6667591399E+00  0.7069999964E+02  0.9974999993E+02 -0.9500000112E+01        34
      36       1  0.3600000000E+00         3    3         1    353268  0.1333273702E+00  0.4999995086E+00  0.3334188710E+00  0.7069999106E+02  0.9974999926E+02 -0.9999999886E+01        37
      36       1  0.3600000000E+00         4    4         1    382668  0.1333332019E+00  0.4999999377E+00  0.7629435025E-04  0.7069999980E+02  0.9974999991E+02 -0.1050000000E+02        40
      37       1  0.3700000000E+00         1    1         1    284668  0.1333332839E+00  0.5000000002E+00  0.1017878305E-03  0.7069999993E+02  0.9975000000E+02 -0.8999999992E+01        30
      37       1  0.3700000000E+00         2    2         1    323868  0.1333330854E+00  0.4999999539E+00  0.6667591188E+00  0.7069999963E+02  0.9974999993E+02 -0.9500000116E+01        34
      37       1  0.3700000000E+00         3    3         1    353268  0.1333272055E+00  0.4999994949E+00  0.3334188925E+00  0.7069999081E+02  0.9974999924E+02 -0.9999999883E+01        37
      37       1  0.3700000000E+00         4    4         1    382668  0.1333331991E+00  0.4999999360E+00  0.7629435609E-04  0.7069999980E+02  0.9974999990E+02 -0.1050000000E+02        40
      38       1  0.3800000000E+00         1    1         1    284668  0.1333332834E+00  0.5000000002E+00  0.1017895151E-03  0.7069999993E+02  0.9975000000E+02 -0.8999999992E+01        30
      38       1  0.3800000000E+00         2    2         1    323868  0.1333330796E+00  0.4999999527E+00  0.6667590977E+00  0.7069999962E+02  0.9974999993E+02 -0.9500000119E+01        34
      38       1  0.3800000000E+00         3    3         1    353268  0.1333270408E+00  0.4999994812E+00  0.3334189139E+00  0.7069999056E+02  0.9974999922E+02 -0.9999999880E+01        37
      38       1  0.3800000000E+00         4    4         1    382668  0.1333331964E+00  0.4999999343E+00  0.7629436193E-04  0.7069999979E+02  0.9974999990E+02 -0.1050000000E+02        40
      39       1  0.3900000000E+00         1    1         1    284668  0.1333332830E+00  0.5000000002E+00  0.1017911997E-03  0.7069999992E+02  0.9975000000E+02 -0.8999999991E+01        30
      39       1  0.3900000000E+00         2    2         1    323868  0.1333330738E+00  0.4999999514E+00  0.6667590766E+00  0.7069999961E+02  0.9974999993E+02 -0.9500000122E+01        34