# File generated by Flopy version 3.8.2 on 01/08/2025 at 18:02:26.
BEGIN options
  COMPLEXITY  simple
END options

