# File generated by Flopy version 3.8.2 on 02/04/2025 at 14:11:10.
BEGIN options
  COMPLEXITY  complex
END options

