# File generated by Flopy version 3.9.1 on 01/23/2025 at 15:44:14.
BEGIN options
  COMPLEXITY  complex
END options

