# File generated by Flopy version 3.4.1 on 01/16/2025 at 10:45:24.
BEGIN options
  COMPLEXITY  moderate
END options

