# File generated by Flopy version 3.8.2 on 11/07/2024 at 16:54:32.
BEGIN options
  COMPLEXITY  complex
END options

