# File generated by Flopy version 3.8.2 on 11/19/2024 at 09:20:58.
BEGIN options
  COMPLEXITY  complex
END options

