# File generated by Flopy version 3.8.2 on 01/09/2025 at 15:48:55.
BEGIN options
  COMPLEXITY  simple
END options

