# File generated by Flopy version 3.4.1 on 01/08/2025 at 09:33:55.
BEGIN options
  COMPLEXITY  complex
END options

