# File generated by Flopy version 3.9.1 on 01/20/2025 at 21:52:42.
BEGIN options
  COMPLEXITY  complex
END options

