# File generated by Flopy version 3.8.2 on 01/06/2025 at 15:54:05.
BEGIN options
  COMPLEXITY  simple
END options

