# File generated by Flopy version 3.8.2 on 12/04/2024 at 16:20:54.
BEGIN options
  COMPLEXITY  complex
END options

