# File generated by Flopy version 3.9.1 on 01/29/2025 at 17:29:21.
BEGIN options
  COMPLEXITY  moderate
END options

