# File generated by Flopy version 3.8.2 on 01/13/2025 at 15:46:21.
BEGIN options
  COMPLEXITY  moderate
END options

