# File generated by Flopy version 3.8.2 on 01/15/2025 at 14:15:57.
BEGIN options
  COMPLEXITY  moderate
END options

