# File generated by Flopy version 3.8.2 on 01/14/2025 at 15:37:25.
BEGIN options
  COMPLEXITY  moderate
END options

