# File generated by Flopy version 3.8.2 on 01/07/2025 at 13:36:00.
BEGIN options
  COMPLEXITY  complex
END options

