# File generated by Flopy version 3.8.2 on 01/06/2025 at 15:54:05.
BEGIN options
END options

BEGIN packages
  OC6  test.oc  oc
  IC6  test.ic  ic
  DIS6  test.dis  dis
  NPF6  test.npf  npf
  CHD6  test.chd  chd_0
END packages

