# MPSIM package for MODPATH 7 generated by Flopy 3.8.2
test_mp_forward.mpnam
test_mp_forward.mplst
4 2 1 1 0 0
test_mp_forward.mpend
test_mp_forward.mppth
test_mp_forward.timeseries
0
1
0
2
1
100 0.01
1
1
10
PG1
1
0.0
INTERNAL
1
1
1 0
        12        21        25       0.3120701        0.671808       0.3458022               0         0
PG1
1
0.0
INTERNAL
1
1
1 0
         9        12        30       0.8726157       0.9826825       0.1377594               0         0
PG1
1
0.0
INTERNAL
1
1
1 0
        20        28        17       0.6687635       0.1558287        0.223775               0         0
PG1
1
0.0
INTERNAL
1
1
1 0
        14         5        23       0.2094305       0.7341103        0.538765               0         0
PG1
1
0.0
INTERNAL
1
1
1 0
        11        35        20       0.3571913       0.9585658       0.6065484               0         0
PG1
1
0.0
INTERNAL
1
1
1 0
        11        12        19       0.3595409       0.4663629       0.9101744               0         0
PG1
1
0.0
INTERNAL
1
1
1 0
        24        21        21      0.08143721       0.6056681       0.4174325               0         0
PG1
1
0.0
INTERNAL
1
1
1 0
        25        16        24     0.001946662        0.554144       0.6509401               0         0
PG1
1
0.0
INTERNAL
1
1
1 0
        23        31        24        0.940737       0.9135429       0.8305396               0         0
PG1
1
0.0
INTERNAL
1
1
1 0
        11        29        27       0.5449734       0.9335521        0.635771               0         0
