# File generated by Flopy version 3.4.1 on 01/16/2025 at 10:45:23.
BEGIN options
  SAVE_FLOWS
  SAVE_SPECIFIC_DISCHARGE
END options

BEGIN griddata
  icelltype
    CONSTANT  0
  k  LAYERED
    INTERNAL  FACTOR  1.0
      4.05046292E-08  4.05046292E-08  4.05046292E-08  4.05046292E-08  4.05046292E-08  4.05046292E-08  4.05046292E-08  4.05046292E-08  4.05046292E-08  4.05046292E-08  4.05046292E-08  4.05046292E-08  4.05046292E-08  4.05046292E-08  4.05046292E-08  4.05046292E-08  4.05046292E-08  4.05046292E-08  4.05046292E-08  4.05046292E-08  4.05046292E-08  4.05046292E-08  4.05046292E-08  4.05046292E-08  4.05046292E-08  4.05046292E-08  4.05046292E-08  4.05046292E-08  4.05046292E-08  4.05046292E-08  4.05046292E-08  4.05046292E-08  4.05046292E-08  4.05046292E-08  4.05046292E-08
      4.05046292E-08  4.05046292E-08  4.05046292E-08  4.05046292E-08  4.05046292E-08  4.05046292E-08  4.05046292E-08  4.05046292E-08  4.05046292E-08  4.05046292E-08  4.05046292E-08  4.05046292E-08  4.05046292E-08  4.05046292E-08  4.05046292E-08  4.05046292E-08  4.05046292E-08  4.05046292E-08  4.05046292E-08  4.05046292E-08  4.05046292E-08  4.05046292E-08  4.05046292E-08  4.05046292E-08  4.05046292E-08  4.05046292E-08  4.05046292E-08  4.05046292E-08  4.05046292E-08  4.05046292E-08  4.05046292E-08  4.05046292E-08  4.05046292E-08  4.05046292E-08  4.05046292E-08
      4.05046292E-08  4.05046292E-08  4.05046292E-08  4.05046292E-08  4.05046292E-08  4.05046292E-08  4.05046292E-08  4.05046292E-08  4.05046292E-08  4.05046292E-08  4.05046292E-08  4.05046292E-08  4.05046292E-08  4.05046292E-08  4.05046292E-08  4.05046292E-08  4.05046292E-08  4.05046292E-08  4.05046292E-08  4.05046292E-08  4.05046292E-08  4.05046292E-08  4.05046292E-08  4.05046292E-08  4.05046292E-08  4.05046292E-08  4.05046292E-08  4.05046292E-08  4.05046292E-08  4.05046292E-08  4.05046292E-08  4.05046292E-08  4.05046292E-08  4.05046292E-08  4.05046292E-08
      4.05046292E-08  4.05046292E-08  4.05046292E-08  4.05046292E-08  4.05046292E-08  4.05046292E-08  4.05046292E-08  4.05046292E-08  4.05046292E-08  4.05046292E-08  4.05046292E-08  4.05046292E-08  4.05046292E-08  4.05046292E-08  4.05046292E-08  4.05046292E-08  4.05046292E-08  4.05046292E-08  4.05046292E-08  4.05046292E-08  4.05046292E-08  4.05046292E-08  4.05046292E-08  4.05046292E-08  4.05046292E-08  4.05046292E-08  4.05046292E-08  4.05046292E-08  4.05046292E-08  4.05046292E-08  4.05046292E-08  4.05046292E-08  4.05046292E-08  4.05046292E-08  4.05046292E-08
      4.05046292E-08  4.05046292E-08  4.05046292E-08  4.05046292E-08  4.05046292E-08  4.05046292E-08  4.05046292E-08  4.05046292E-08  4.05046292E-08  4.05046292E-08  4.05046292E-08  4.05046292E-08  4.05046292E-08  4.05046292E-08  4.05046292E-08  4.05046292E-08  4.05046292E-08  4.05046292E-08  4.05046292E-08  4.05046292E-08  4.05046292E-08  4.05046292E-08  4.05046292E-08  4.05046292E-08  4.05046292E-08  4.05046292E-08  4.05046292E-08  4.05046292E-08  4.05046292E-08  4.05046292E-08  4.05046292E-08  4.05046292E-08  4.05046292E-08  4.05046292E-08  4.05046292E-08
      4.05046292E-08  4.05046292E-08  4.05046292E-08  4.05046292E-08  4.05046292E-08  4.05046292E-08  4.05046292E-08  4.05046292E-08  4.05046292E-08  4.05046292E-08  4.05046292E-08  4.05046292E-08  4.05046292E-08  4.05046292E-08  4.05046292E-08  4.05046292E-08  4.05046292E-08  4.05046292E-08  4.05046292E-08  4.05046292E-08  4.05046292E-08  4.05046292E-08  4.05046292E-08  4.05046292E-08  4.05046292E-08  4.05046292E-08  4.05046292E-08  4.05046292E-08  4.05046292E-08  4.05046292E-08  4.05046292E-08  4.05046292E-08  4.05046292E-08  4.05046292E-08  4.05046292E-08
      4.05046292E-08  4.05046292E-08  4.05046292E-08  4.05046292E-08  4.05046292E-08  4.05046292E-08  4.05046292E-08  4.05046292E-08  4.05046292E-08  4.05046292E-08  4.05046292E-08  4.05046292E-08  4.05046292E-08  4.05046292E-08  4.05046292E-08  4.05046292E-08  4.05046292E-08  4.05046292E-08  4.05046292E-08  4.05046292E-08  4.05046292E-08  4.05046292E-08  4.05046292E-08  4.05046292E-08  4.05046292E-08  4.05046292E-08  4.05046292E-08  4.05046292E-08  4.05046292E-08  4.05046292E-08  4.05046292E-08  4.05046292E-08  4.05046292E-08  4.05046292E-08  4.05046292E-08
      4.05046292E-08  4.05046292E-08  4.05046292E-08  4.05046292E-08  4.05046292E-08  4.05046292E-08  4.05046292E-08  4.05046292E-08  4.05046292E-08  4.05046292E-08  4.05046292E-08  4.05046292E-08  4.05046292E-08  4.05046292E-08  4.05046292E-08  4.05046292E-08  4.05046292E-08  4.05046292E-08  4.05046292E-08  4.05046292E-08  4.05046292E-08  4.05046292E-08  4.05046292E-08  4.05046292E-08  4.05046292E-08  4.05046292E-08  4.05046292E-08  4.05046292E-08  4.05046292E-08  4.05046292E-08  4.05046292E-08  4.05046292E-08  4.05046292E-08  4.05046292E-08  4.05046292E-08
      4.05046292E-08  4.05046292E-08  4.05046292E-08  4.05046292E-08  4.05046292E-08  4.05046292E-08  4.05046292E-08  4.05046292E-08  4.05046292E-08  4.05046292E-08  4.05046292E-08  4.05046292E-08  4.05046292E-08  4.05046292E-08  4.05046292E-08  4.05046292E-08  4.05046292E-08  4.05046292E-08  4.05046292E-08  4.05046292E-08  4.05046292E-08  4.05046292E-08  4.05046292E-08  4.05046292E-08  4.05046292E-08  4.05046292E-08  4.05046292E-08  4.05046292E-08  4.05046292E-08  4.05046292E-08  4.05046292E-08  4.05046292E-08  4.05046292E-08  4.05046292E-08  4.05046292E-08
      4.05046292E-08  4.05046292E-08  4.05046292E-08  4.05046292E-08  4.05046292E-08  4.05046292E-08  4.05046292E-08  4.05046292E-08  4.05046292E-08  4.05046292E-08  4.05046292E-08  4.05046292E-08  4.05046292E-08  4.05046292E-08  4.05046292E-08  4.05046292E-08  4.05046292E-08  4.05046292E-08  4.05046292E-08  4.05046292E-08  4.05046292E-08  4.05046292E-08  4.05046292E-08  4.05046292E-08  4.05046292E-08  4.05046292E-08  4.05046292E-08  4.05046292E-08  4.05046292E-08  4.05046292E-08  4.05046292E-08  4.05046292E-08  4.05046292E-08  4.05046292E-08  4.05046292E-08
      4.05046292E-08  4.05046292E-08  4.05046292E-08  4.05046292E-08  4.05046292E-08  4.05046292E-08  4.05046292E-08  4.05046292E-08  4.05046292E-08  4.05046292E-08  4.05046292E-08  4.05046292E-08  4.05046292E-08  4.05046292E-08  4.05046292E-08  4.05046292E-08  4.05046292E-08  4.05046292E-08  4.05046292E-08  4.05046292E-08  4.05046292E-08  4.05046292E-08  4.05046292E-08  4.05046292E-08  4.05046292E-08  4.05046292E-08  4.05046292E-08  4.05046292E-08  4.05046292E-08  4.05046292E-08  4.05046292E-08  4.05046292E-08  4.05046292E-08  4.05046292E-08  4.05046292E-08
      4.05046292E-08  4.05046292E-08  4.05046292E-08  4.05046292E-08  4.05046292E-08  4.05046292E-08  4.05046292E-08  4.05046292E-08  4.05046292E-08  4.05046292E-08  4.05046292E-08  4.05046292E-08  4.05046292E-08  4.05046292E-08  4.05046292E-08  4.05046292E-08  4.05046292E-08  4.05046292E-08  4.05046292E-08  4.05046292E-08  4.05046292E-08  4.05046292E-08  4.05046292E-08  4.05046292E-08  4.05046292E-08  4.05046292E-08  4.05046292E-08  4.05046292E-08  4.05046292E-08  4.05046292E-08  4.05046292E-08  4.05046292E-08  4.05046292E-08  4.05046292E-08  4.05046292E-08
      4.05046292E-08  4.05046292E-08  4.05046292E-08  4.05046292E-08  4.05046292E-08  4.05046292E-08  4.05046292E-08  4.05046292E-08  4.05046292E-08  4.05046292E-08  4.05046292E-08  4.05046292E-08  4.05046292E-08  4.05046292E-08  4.05046292E-08  4.05046292E-08  4.05046292E-08  4.05046292E-08  4.05046292E-08  4.05046292E-08  4.05046292E-08  4.05046292E-08  4.05046292E-08  4.05046292E-08  4.05046292E-08  4.05046292E-08  4.05046292E-08  4.05046292E-08  4.05046292E-08  4.05046292E-08  4.05046292E-08  4.05046292E-08  4.05046292E-08  4.05046292E-08  4.05046292E-08
      4.05046292E-08  4.05046292E-08  4.05046292E-08  4.05046292E-08  4.05046292E-08  4.05046292E-08  4.05046292E-08  4.05046292E-08  4.05046292E-08  4.05046292E-08  4.05046292E-08  4.05046292E-08  4.05046292E-08  4.05046292E-08  4.05046292E-08  4.05046292E-08  4.05046292E-08  4.05046292E-08  4.05046292E-08  4.05046292E-08  4.05046292E-08  4.05046292E-08  4.05046292E-08  4.05046292E-08  4.05046292E-08  4.05046292E-08  4.05046292E-08  4.05046292E-08  4.05046292E-08  4.05046292E-08  4.05046292E-08  4.05046292E-08  4.05046292E-08  4.05046292E-08  4.05046292E-08
      4.05046292E-08  4.05046292E-08  4.05046292E-08  4.05046292E-08  4.05046292E-08  4.05046292E-08  4.05046292E-08  4.05046292E-08  4.05046292E-08  4.05046292E-08  4.05046292E-08  4.05046292E-08  4.05046292E-08  4.05046292E-08  4.05046292E-08  4.05046292E-08  4.05046292E-08  4.05046292E-08  4.05046292E-08  4.05046292E-08  4.05046292E-08  4.05046292E-08  4.05046292E-08  4.05046292E-08  4.05046292E-08  4.05046292E-08  4.05046292E-08  4.05046292E-08  4.05046292E-08  4.05046292E-08  4.05046292E-08  4.05046292E-08  4.05046292E-08  4.05046292E-08  4.05046292E-08
      4.05046292E-08  4.05046292E-08  4.05046292E-08  4.05046292E-08  4.05046292E-08  4.05046292E-08  4.05046292E-08  4.05046292E-08  4.05046292E-08  4.05046292E-08  4.05046292E-08  4.05046292E-08  4.05046292E-08  4.05046292E-08  4.05046292E-08  4.05046292E-08  4.05046292E-08  4.05046292E-08  4.05046292E-08  4.05046292E-08  4.05046292E-08  4.05046292E-08  4.05046292E-08  4.05046292E-08  4.05046292E-08  4.05046292E-08  4.05046292E-08  4.05046292E-08  4.05046292E-08  4.05046292E-08  4.05046292E-08  4.05046292E-08  4.05046292E-08  4.05046292E-08  4.05046292E-08
      4.05046292E-08  4.05046292E-08  4.05046292E-08  4.05046292E-08  4.05046292E-08  4.05046292E-08  4.05046292E-08  4.05046292E-08  4.05046292E-08  4.05046292E-08  4.05046292E-08  4.05046292E-08  4.05046292E-08  4.05046292E-08  4.05046292E-08  4.05046292E-08  4.05046292E-08  4.05046292E-08  4.05046292E-08  4.05046292E-08  4.05046292E-08  4.05046292E-08  4.05046292E-08  4.05046292E-08  4.05046292E-08  4.05046292E-08  4.05046292E-08  4.05046292E-08  4.05046292E-08  4.05046292E-08  4.05046292E-08  4.05046292E-08  4.05046292E-08  4.05046292E-08  4.05046292E-08
      4.05046292E-08  4.05046292E-08  4.05046292E-08  4.05046292E-08  4.05046292E-08  4.05046292E-08  4.05046292E-08  4.05046292E-08  4.05046292E-08  4.05046292E-08  4.05046292E-08  4.05046292E-08  4.05046292E-08  4.05046292E-08  4.05046292E-08  4.05046292E-08  4.05046292E-08  4.05046292E-08  4.05046292E-08  4.05046292E-08  4.05046292E-08  4.05046292E-08  4.05046292E-08  4.05046292E-08  4.05046292E-08  4.05046292E-08  4.05046292E-08  4.05046292E-08  4.05046292E-08  4.05046292E-08  4.05046292E-08  4.05046292E-08  4.05046292E-08  4.05046292E-08  4.05046292E-08
      4.05046292E-08  4.05046292E-08  4.05046292E-08  4.05046292E-08  4.05046292E-08  4.05046292E-08  4.05046292E-08  4.05046292E-08  4.05046292E-08  4.05046292E-08  4.05046292E-08  4.05046292E-08  4.05046292E-08  4.05046292E-08  4.05046292E-08  4.05046292E-08  4.05046292E-08  4.05046292E-08  4.05046292E-08  4.05046292E-08  4.05046292E-08  4.05046292E-08  4.05046292E-08  4.05046292E-08  4.05046292E-08  4.05046292E-08  4.05046292E-08  4.05046292E-08  4.05046292E-08  4.05046292E-08  4.05046292E-08  4.05046292E-08  4.05046292E-08  4.05046292E-08  4.05046292E-08
      4.05046292E-08  4.05046292E-08  4.05046292E-08  4.05046292E-08  4.05046292E-08  4.05046292E-08  4.05046292E-08  4.05046292E-08  4.05046292E-08  4.05046292E-08  4.05046292E-08  4.05046292E-08  4.05046292E-08  4.05046292E-08  4.05046292E-08  4.05046292E-08  4.05046292E-08  4.05046292E-08  4.05046292E-08  4.05046292E-08  4.05046292E-08  4.05046292E-08  4.05046292E-08  4.05046292E-08  4.05046292E-08  4.05046292E-08  4.05046292E-08  4.05046292E-08  4.05046292E-08  4.05046292E-08  4.05046292E-08  4.05046292E-08  4.05046292E-08  4.05046292E-08  4.05046292E-08
      4.05046292E-08  4.05046292E-08  4.05046292E-08  4.05046292E-08  4.05046292E-08  4.05046292E-08  4.05046292E-08  4.05046292E-08  4.05046292E-08  4.05046292E-08  4.05046292E-08  4.05046292E-08  4.05046292E-08  4.05046292E-08  4.05046292E-08  4.05046292E-08  4.05046292E-08  4.05046292E-08  4.05046292E-08  4.05046292E-08  4.05046292E-08  4.05046292E-08  4.05046292E-08  4.05046292E-08  4.05046292E-08  4.05046292E-08  4.05046292E-08  4.05046292E-08  4.05046292E-08  4.05046292E-08  4.05046292E-08  4.05046292E-08  4.05046292E-08  4.05046292E-08  4.05046292E-08
      4.05046292E-08  4.05046292E-08  4.05046292E-08  4.05046292E-08  4.05046292E-08  4.05046292E-08  4.05046292E-08  4.05046292E-08  4.05046292E-08  4.05046292E-08  4.05046292E-08  4.05046292E-08  4.05046292E-08  4.05046292E-08  4.05046292E-08  4.05046292E-08  4.05046292E-08  4.05046292E-08  4.05046292E-08  4.05046292E-08  4.05046292E-08  4.05046292E-08  4.05046292E-08  4.05046292E-08  4.05046292E-08  4.05046292E-08  4.05046292E-08  4.05046292E-08  4.05046292E-08  4.05046292E-08  4.05046292E-08  4.05046292E-08  4.05046292E-08  4.05046292E-08  4.05046292E-08
      4.05046292E-08  4.05046292E-08  4.05046292E-08  4.05046292E-08  4.05046292E-08  4.05046292E-08  4.05046292E-08  4.05046292E-08  4.05046292E-08  4.05046292E-08  4.05046292E-08  4.05046292E-08  4.05046292E-08  4.05046292E-08  4.05046292E-08  4.05046292E-08  4.05046292E-08  4.05046292E-08  4.05046292E-08  4.05046292E-08  4.05046292E-08  4.05046292E-08  4.05046292E-08  4.05046292E-08  4.05046292E-08  4.05046292E-08  4.05046292E-08  4.05046292E-08  4.05046292E-08  4.05046292E-08  4.05046292E-08  4.05046292E-08  4.05046292E-08  4.05046292E-08  4.05046292E-08
      4.05046292E-08  4.05046292E-08  4.05046292E-08  4.05046292E-08  4.05046292E-08  4.05046292E-08  4.05046292E-08  4.05046292E-08  4.05046292E-08  4.05046292E-08  4.05046292E-08  4.05046292E-08  4.05046292E-08  4.05046292E-08  4.05046292E-08  4.05046292E-08  4.05046292E-08  4.05046292E-08  4.05046292E-08  4.05046292E-08  4.05046292E-08  4.05046292E-08  4.05046292E-08  4.05046292E-08  4.05046292E-08  4.05046292E-08  4.05046292E-08  4.05046292E-08  4.05046292E-08  4.05046292E-08  4.05046292E-08  4.05046292E-08  4.05046292E-08  4.05046292E-08  4.05046292E-08
      4.05046292E-08  4.05046292E-08  4.05046292E-08  4.05046292E-08  4.05046292E-08  4.05046292E-08  4.05046292E-08  4.05046292E-08  4.05046292E-08  4.05046292E-08  4.05046292E-08  4.05046292E-08  4.05046292E-08  4.05046292E-08  4.05046292E-08  4.05046292E-08  4.05046292E-08  4.05046292E-08  4.05046292E-08  4.05046292E-08  4.05046292E-08  4.05046292E-08  4.05046292E-08  4.05046292E-08  4.05046292E-08  4.05046292E-08  4.05046292E-08  4.05046292E-08  4.05046292E-08  4.05046292E-08  4.05046292E-08  4.05046292E-08  4.05046292E-08  4.05046292E-08  4.05046292E-08
      4.05046292E-08  4.05046292E-08  4.05046292E-08  4.05046292E-08  4.05046292E-08  4.05046292E-08  4.05046292E-08  4.05046292E-08  4.05046292E-08  4.05046292E-08  4.05046292E-08  4.05046292E-08  4.05046292E-08  4.05046292E-08  4.05046292E-08  4.05046292E-08  4.05046292E-08  4.05046292E-08  4.05046292E-08  4.05046292E-08  4.05046292E-08  4.05046292E-08  4.05046292E-08  4.05046292E-08  4.05046292E-08  4.05046292E-08  4.05046292E-08  4.05046292E-08  4.05046292E-08  4.05046292E-08  4.05046292E-08  4.05046292E-08  4.05046292E-08  4.05046292E-08  4.05046292E-08
      4.05046292E-08  4.05046292E-08  4.05046292E-08  4.05046292E-08  4.05046292E-08  4.05046292E-08  4.05046292E-08  4.05046292E-08  4.05046292E-08  4.05046292E-08  4.05046292E-08  4.05046292E-08  4.05046292E-08  4.05046292E-08  4.05046292E-08  4.05046292E-08  4.05046292E-08  4.05046292E-08  4.05046292E-08  4.05046292E-08  4.05046292E-08  4.05046292E-08  4.05046292E-08  4.05046292E-08  4.05046292E-08  4.05046292E-08  4.05046292E-08  4.05046292E-08  4.05046292E-08  4.05046292E-08  4.05046292E-08  4.05046292E-08  4.05046292E-08  4.05046292E-08  4.05046292E-08
      4.05046292E-08  4.05046292E-08  4.05046292E-08  4.05046292E-08  4.05046292E-08  4.05046292E-08  4.05046292E-08  4.05046292E-08  4.05046292E-08  4.05046292E-08  4.05046292E-08  4.05046292E-08  4.05046292E-08  4.05046292E-08  4.05046292E-08  4.05046292E-08  4.05046292E-08  4.05046292E-08  4.05046292E-08  4.05046292E-08  4.05046292E-08  4.05046292E-08  4.05046292E-08  4.05046292E-08  4.05046292E-08  4.05046292E-08  4.05046292E-08  4.05046292E-08  4.05046292E-08  4.05046292E-08  4.05046292E-08  4.05046292E-08  4.05046292E-08  4.05046292E-08  4.05046292E-08
      4.05046292E-08  4.05046292E-08  4.05046292E-08  4.05046292E-08  4.05046292E-08  4.05046292E-08  4.05046292E-08  4.05046292E-08  4.05046292E-08  4.05046292E-08  4.05046292E-08  4.05046292E-08  4.05046292E-08  4.05046292E-08  4.05046292E-08  4.05046292E-08  4.05046292E-08  4.05046292E-08  4.05046292E-08  4.05046292E-08  4.05046292E-08  4.05046292E-08  4.05046292E-08  4.05046292E-08  4.05046292E-08  4.05046292E-08  4.05046292E-08  4.05046292E-08  4.05046292E-08  4.05046292E-08  4.05046292E-08  4.05046292E-08  4.05046292E-08  4.05046292E-08  4.05046292E-08
      4.05046292E-08  4.05046292E-08  4.05046292E-08  4.05046292E-08  4.05046292E-08  4.05046292E-08  4.05046292E-08  4.05046292E-08  4.05046292E-08  4.05046292E-08  4.05046292E-08  4.05046292E-08  4.05046292E-08  4.05046292E-08  4.05046292E-08  4.05046292E-08  4.05046292E-08  4.05046292E-08  4.05046292E-08  4.05046292E-08  4.05046292E-08  4.05046292E-08  4.05046292E-08  4.05046292E-08  4.05046292E-08  4.05046292E-08  4.05046292E-08  4.05046292E-08  4.05046292E-08  4.05046292E-08  4.05046292E-08  4.05046292E-08  4.05046292E-08  4.05046292E-08  4.05046292E-08
      4.05046292E-08  4.05046292E-08  4.05046292E-08  4.05046292E-08  4.05046292E-08  4.05046292E-08  4.05046292E-08  4.05046292E-08  4.05046292E-08  4.05046292E-08  4.05046292E-08  4.05046292E-08  4.05046292E-08  4.05046292E-08  4.05046292E-08  4.05046292E-08  4.05046292E-08  4.05046292E-08  4.05046292E-08  4.05046292E-08  4.05046292E-08  4.05046292E-08  4.05046292E-08  4.05046292E-08  4.05046292E-08  4.05046292E-08  4.05046292E-08  4.05046292E-08  4.05046292E-08  4.05046292E-08  4.05046292E-08  4.05046292E-08  4.05046292E-08  4.05046292E-08  4.05046292E-08
      4.05046292E-08  4.05046292E-08  4.05046292E-08  4.05046292E-08  4.05046292E-08  4.05046292E-08  4.05046292E-08  4.05046292E-08  4.05046292E-08  4.05046292E-08  4.05046292E-08  4.05046292E-08  4.05046292E-08  4.05046292E-08  4.05046292E-08  4.05046292E-08  4.05046292E-08  4.05046292E-08  4.05046292E-08  4.05046292E-08  4.05046292E-08  4.05046292E-08  4.05046292E-08  4.05046292E-08  4.05046292E-08  4.05046292E-08  4.05046292E-08  4.05046292E-08  4.05046292E-08  4.05046292E-08  4.05046292E-08  4.05046292E-08  4.05046292E-08  4.05046292E-08  4.05046292E-08
      4.05046292E-08  4.05046292E-08  4.05046292E-08  4.05046292E-08  4.05046292E-08  4.05046292E-08  4.05046292E-08  4.05046292E-08  4.05046292E-08  4.05046292E-08  4.05046292E-08  4.05046292E-08  4.05046292E-08  4.05046292E-08  4.05046292E-08  4.05046292E-08  4.05046292E-08  4.05046292E-08  4.05046292E-08  4.05046292E-08  4.05046292E-08  4.05046292E-08  4.05046292E-08  4.05046292E-08  4.05046292E-08  4.05046292E-08  4.05046292E-08  4.05046292E-08  4.05046292E-08  4.05046292E-08  4.05046292E-08  4.05046292E-08  4.05046292E-08  4.05046292E-08  4.05046292E-08
      4.05046292E-08  4.05046292E-08  4.05046292E-08  4.05046292E-08  4.05046292E-08  4.05046292E-08  4.05046292E-08  4.05046292E-08  4.05046292E-08  4.05046292E-08  4.05046292E-08  4.05046292E-08  4.05046292E-08  4.05046292E-08  4.05046292E-08  4.05046292E-08  4.05046292E-08  4.05046292E-08  4.05046292E-08  4.05046292E-08  4.05046292E-08  4.05046292E-08  4.05046292E-08  4.05046292E-08  4.05046292E-08  4.05046292E-08  4.05046292E-08  4.05046292E-08  4.05046292E-08  4.05046292E-08  4.05046292E-08  4.05046292E-08  4.05046292E-08  4.05046292E-08  4.05046292E-08
      4.05046292E-08  4.05046292E-08  4.05046292E-08  4.05046292E-08  4.05046292E-08  4.05046292E-08  4.05046292E-08  4.05046292E-08  4.05046292E-08  4.05046292E-08  4.05046292E-08  4.05046292E-08  4.05046292E-08  4.05046292E-08  4.05046292E-08  4.05046292E-08  4.05046292E-08  4.05046292E-08  4.05046292E-08  4.05046292E-08  4.05046292E-08  4.05046292E-08  4.05046292E-08  4.05046292E-08  4.05046292E-08  4.05046292E-08  4.05046292E-08  4.05046292E-08  4.05046292E-08  4.05046292E-08  4.05046292E-08  4.05046292E-08  4.05046292E-08  4.05046292E-08  4.05046292E-08
    INTERNAL  FACTOR  1.0
      4.05046292E-08  4.05046292E-08  4.05046292E-08  4.05046292E-08  4.05046292E-08  4.05046292E-08  4.05046292E-08  4.05046292E-08  4.05046292E-08  4.05046292E-08  4.05046292E-08  4.05046292E-08  4.05046292E-08  4.05046292E-08  4.05046292E-08  4.05046292E-08  4.05046292E-08  4.05046292E-08  4.05046292E-08  4.05046292E-08  4.05046292E-08  4.05046292E-08  4.05046292E-08  4.05046292E-08  4.05046292E-08  4.05046292E-08  4.05046292E-08  4.05046292E-08  4.05046292E-08  4.05046292E-08  4.05046292E-08  4.05046292E-08  4.05046292E-08  4.05046292E-08  4.05046292E-08
      4.05046292E-08  4.05046292E-08  4.05046292E-08  4.05046292E-08  4.05046292E-08  4.05046292E-08  4.05046292E-08  4.05046292E-08  4.05046292E-08  4.05046292E-08  4.05046292E-08  4.05046292E-08  4.05046292E-08  4.05046292E-08  4.05046292E-08  4.05046292E-08  4.05046292E-08  4.05046292E-08  4.05046292E-08  4.05046292E-08  4.05046292E-08  4.05046292E-08  4.05046292E-08  4.05046292E-08  4.05046292E-08  4.05046292E-08  4.05046292E-08  4.05046292E-08  4.05046292E-08  4.05046292E-08  4.05046292E-08  4.05046292E-08  4.05046292E-08  4.05046292E-08  4.05046292E-08
      4.05046292E-08  4.05046292E-08  4.05046292E-08  4.05046292E-08  4.05046292E-08  4.05046292E-08  4.05046292E-08  4.05046292E-08  4.05046292E-08  4.05046292E-08  4.05046292E-08  4.05046292E-08  4.05046292E-08  4.05046292E-08  4.05046292E-08  4.05046292E-08  4.05046292E-08  4.05046292E-08  4.05046292E-08  4.05046292E-08  4.05046292E-08  4.05046292E-08  4.05046292E-08  4.05046292E-08  4.05046292E-08  4.05046292E-08  4.05046292E-08  4.05046292E-08  4.05046292E-08  4.05046292E-08  4.05046292E-08  4.05046292E-08  4.05046292E-08  4.05046292E-08  4.05046292E-08
      4.05046292E-08  4.05046292E-08  4.05046292E-08  4.05046292E-08  4.05046292E-08  4.05046292E-08  4.05046292E-08  4.05046292E-08  4.05046292E-08  4.05046292E-08  4.05046292E-08  4.05046292E-08  4.05046292E-08  4.05046292E-08  4.05046292E-08  4.05046292E-08  4.05046292E-08  4.05046292E-08  4.05046292E-08  4.05046292E-08  4.05046292E-08  4.05046292E-08  4.05046292E-08  4.05046292E-08  4.05046292E-08  4.05046292E-08  4.05046292E-08  4.05046292E-08  4.05046292E-08  4.05046292E-08  4.05046292E-08  4.05046292E-08  4.05046292E-08  4.05046292E-08  4.05046292E-08
      4.05046292E-08  4.05046292E-08  4.05046292E-08  4.05046292E-08  4.05046292E-08  4.05046292E-08  4.05046292E-08  4.05046292E-08  4.05046292E-08  4.05046292E-08  4.05046292E-08  4.05046292E-08  4.05046292E-08  4.05046292E-08  4.05046292E-08  4.05046292E-08  4.05046292E-08  4.05046292E-08  4.05046292E-08  4.05046292E-08  4.05046292E-08  4.05046292E-08  4.05046292E-08  4.05046292E-08  4.05046292E-08  4.05046292E-08  4.05046292E-08  4.05046292E-08  4.05046292E-08  4.05046292E-08  4.05046292E-08  4.05046292E-08  4.05046292E-08  4.05046292E-08  4.05046292E-08
      4.05046292E-08  4.05046292E-08  4.05046292E-08  4.05046292E-08  4.05046292E-08  4.05046292E-08  4.05046292E-08  4.05046292E-08  4.05046292E-08  4.05046292E-08  4.05046292E-08  4.05046292E-08  4.05046292E-08  4.05046292E-08  4.05046292E-08  4.05046292E-08  4.05046292E-08  4.05046292E-08  4.05046292E-08  4.05046292E-08  4.05046292E-08  4.05046292E-08  4.05046292E-08  4.05046292E-08  4.05046292E-08  4.05046292E-08  4.05046292E-08  4.05046292E-08  4.05046292E-08  4.05046292E-08  4.05046292E-08  4.05046292E-08  4.05046292E-08  4.05046292E-08  4.05046292E-08
      4.05046292E-08  4.05046292E-08  4.05046292E-08  4.05046292E-08  4.05046292E-08  4.05046292E-08  4.05046292E-08  4.05046292E-08  4.05046292E-08  4.05046292E-08  4.05046292E-08  4.05046292E-08  4.05046292E-08  4.05046292E-08  4.05046292E-08  4.05046292E-08  4.05046292E-08  4.05046292E-08  4.05046292E-08  4.05046292E-08  4.05046292E-08  4.05046292E-08  4.05046292E-08  4.05046292E-08  4.05046292E-08  4.05046292E-08  4.05046292E-08  4.05046292E-08  4.05046292E-08  4.05046292E-08  4.05046292E-08  4.05046292E-08  4.05046292E-08  4.05046292E-08  4.05046292E-08
      4.05046292E-08  4.05046292E-08  4.05046292E-08  4.05046292E-08  4.05046292E-08  4.05046292E-08  4.05046292E-08  4.05046292E-08  4.05046292E-08  4.05046292E-08  4.05046292E-08  4.05046292E-08  4.05046292E-08  4.05046292E-08  4.05046292E-08  4.05046292E-08  4.05046292E-08  4.05046292E-08  4.05046292E-08  4.05046292E-08  4.05046292E-08  4.05046292E-08  4.05046292E-08  4.05046292E-08  4.05046292E-08  4.05046292E-08  4.05046292E-08  4.05046292E-08  4.05046292E-08  4.05046292E-08  4.05046292E-08  4.05046292E-08  4.05046292E-08  4.05046292E-08  4.05046292E-08
      4.05046292E-08  4.05046292E-08  4.05046292E-08  4.05046292E-08  4.05046292E-08  4.05046292E-08  4.05046292E-08  4.05046292E-08  4.05046292E-08  4.05046292E-08  4.05046292E-08  4.05046292E-08  4.05046292E-08  4.05046292E-08  4.05046292E-08  4.05046292E-08  4.05046292E-08  4.05046292E-08  4.05046292E-08  4.05046292E-08  4.05046292E-08  4.05046292E-08  4.05046292E-08  4.05046292E-08  4.05046292E-08  4.05046292E-08  4.05046292E-08  4.05046292E-08  4.05046292E-08  4.05046292E-08  4.05046292E-08  4.05046292E-08  4.05046292E-08  4.05046292E-08  4.05046292E-08
      4.05046292E-08  4.05046292E-08  4.05046292E-08  4.05046292E-08  4.05046292E-08  4.05046292E-08  4.05046292E-08  4.05046292E-08  4.05046292E-08  4.05046292E-08  4.05046292E-08  4.05046292E-08  4.05046292E-08  4.05046292E-08  4.05046292E-08  4.05046292E-08  4.05046292E-08  4.05046292E-08  4.05046292E-08  4.05046292E-08  4.05046292E-08  4.05046292E-08  4.05046292E-08  4.05046292E-08  4.05046292E-08  4.05046292E-08  4.05046292E-08  4.05046292E-08  4.05046292E-08  4.05046292E-08  4.05046292E-08  4.05046292E-08  4.05046292E-08  4.05046292E-08  4.05046292E-08
      4.05046292E-08  4.05046292E-08  4.05046292E-08  4.05046292E-08  4.05046292E-08  4.05046292E-08  4.05046292E-08  4.05046292E-08  4.05046292E-08  4.05046292E-08  4.05046292E-08  4.05046292E-08  4.05046292E-08  4.05046292E-08  4.05046292E-08  4.05046292E-08  4.05046292E-08  4.05046292E-08  4.05046292E-08  4.05046292E-08  4.05046292E-08  4.05046292E-08  4.05046292E-08  4.05046292E-08  4.05046292E-08  4.05046292E-08  4.05046292E-08  4.05046292E-08  4.05046292E-08  4.05046292E-08  4.05046292E-08  4.05046292E-08  4.05046292E-08  4.05046292E-08  4.05046292E-08
      4.05046292E-08  4.05046292E-08  4.05046292E-08  4.05046292E-08  4.05046292E-08  4.05046292E-08  4.05046292E-08  4.05046292E-08  4.05046292E-08  4.05046292E-08  4.05046292E-08  4.05046292E-08  4.05046292E-08  4.05046292E-08  4.05046292E-08  4.05046292E-08  4.05046292E-08  4.05046292E-08  4.05046292E-08  4.05046292E-08  4.05046292E-08  4.05046292E-08  4.05046292E-08  4.05046292E-08  4.05046292E-08  4.05046292E-08  4.05046292E-08  4.05046292E-08  4.05046292E-08  4.05046292E-08  4.05046292E-08  4.05046292E-08  4.05046292E-08  4.05046292E-08  4.05046292E-08
      4.05046292E-08  4.05046292E-08  4.05046292E-08  4.05046292E-08  4.05046292E-08  4.05046292E-08  4.05046292E-08  4.05046292E-08  4.05046292E-08  4.05046292E-08  4.05046292E-08  4.05046292E-08  4.05046292E-08  4.05046292E-08  4.05046292E-08  4.05046292E-08  4.05046292E-08  4.05046292E-08  4.05046292E-08  4.05046292E-08  4.05046292E-08  4.05046292E-08  4.05046292E-08  4.05046292E-08  4.05046292E-08  4.05046292E-08  4.05046292E-08  4.05046292E-08  4.05046292E-08  4.05046292E-08  4.05046292E-08  4.05046292E-08  4.05046292E-08  4.05046292E-08  4.05046292E-08
      4.05046292E-08  4.05046292E-08  4.05046292E-08  4.05046292E-08  4.05046292E-08  4.05046292E-08  4.05046292E-08  4.05046292E-08  4.05046292E-08  4.05046292E-08  4.05046292E-08  4.05046292E-08  4.05046292E-08  4.05046292E-08  4.05046292E-08  4.05046292E-08  4.05046292E-08  4.05046292E-08  4.05046292E-08  4.05046292E-08  4.05046292E-08  4.05046292E-08  4.05046292E-08  4.05046292E-08  4.05046292E-08  4.05046292E-08  4.05046292E-08  4.05046292E-08  4.05046292E-08  4.05046292E-08  4.05046292E-08  4.05046292E-08  4.05046292E-08  4.05046292E-08  4.05046292E-08
      4.05046292E-08  4.05046292E-08  4.05046292E-08  4.05046292E-08  4.05046292E-08  4.05046292E-08  4.05046292E-08  4.05046292E-08  4.05046292E-08  4.05046292E-08  4.05046292E-08  4.05046292E-08  4.05046292E-08  4.05046292E-08  4.05046292E-08  4.05046292E-08  4.05046292E-08  4.05046292E-08  4.05046292E-08  4.05046292E-08  4.05046292E-08  4.05046292E-08  4.05046292E-08  4.05046292E-08  4.05046292E-08  4.05046292E-08  4.05046292E-08  4.05046292E-08  4.05046292E-08  4.05046292E-08  4.05046292E-08  4.05046292E-08  4.05046292E-08  4.05046292E-08  4.05046292E-08
      4.05046292E-08  4.05046292E-08  4.05046292E-08  4.05046292E-08  4.05046292E-08  4.05046292E-08  4.05046292E-08  4.05046292E-08  4.05046292E-08  4.05046292E-08  4.05046292E-08  4.05046292E-08  4.05046292E-08  4.05046292E-08  4.05046292E-08  4.05046292E-08  4.05046292E-08  4.05046292E-08  4.05046292E-08  4.05046292E-08  4.05046292E-08  4.05046292E-08  4.05046292E-08  4.05046292E-08  4.05046292E-08  4.05046292E-08  4.05046292E-08  4.05046292E-08  4.05046292E-08  4.05046292E-08  4.05046292E-08  4.05046292E-08  4.05046292E-08  4.05046292E-08  4.05046292E-08
      4.05046292E-08  4.05046292E-08  4.05046292E-08  4.05046292E-08  4.05046292E-08  4.05046292E-08  4.05046292E-08  4.05046292E-08  4.05046292E-08  4.05046292E-08  4.05046292E-08  4.05046292E-08  4.05046292E-08  4.05046292E-08  4.05046292E-08  4.05046292E-08  4.05046292E-08  4.05046292E-08  4.05046292E-08  4.05046292E-08  4.05046292E-08  4.05046292E-08  4.05046292E-08  4.05046292E-08  4.05046292E-08  4.05046292E-08  4.05046292E-08  4.05046292E-08  4.05046292E-08  4.05046292E-08  4.05046292E-08  4.05046292E-08  4.05046292E-08  4.05046292E-08  4.05046292E-08