# File generated by Flopy version 3.8.2 on 01/20/2025 at 17:09:41.
BEGIN options
  SAVE_FLOWS
  SAVE_SPECIFIC_DISCHARGE
  SAVE_SATURATION
END options

BEGIN griddata
  icelltype
    CONSTANT  0
  k  LAYERED
    INTERNAL  FACTOR  1.0
      1.11305325E-04  9.76542744E-05  9.49855011E-05  1.22374447E-04  1.22374447E-04  1.22374447E-04  1.22374447E-04  1.22374447E-04  1.22374447E-04  1.22374447E-04  1.22374447E-04  1.22374447E-04  1.22374447E-04  1.22374447E-04  1.22374447E-04  1.22374447E-04  1.22374447E-04  1.22374447E-04  1.22374447E-04  1.22374447E-04  1.22374447E-04  1.22374447E-04  1.22374447E-04  1.75200283E-04  1.46765934E-04  1.15507110E-04  1.07044858E-04  1.48155560E-04  2.36468652E-04  2.86530255E-04  3.31832809E-04  3.10173411E-04  2.34162489E-04  1.56225631E-04  8.33904567E-05  4.77418549E-05  3.65589342E-05  3.66548342E-05  3.79267507E-05  3.66843863E-05  3.42224279E-05  3.34843800E-05  3.29328010E-05  3.71547206E-05  5.18791107E-05  8.01215728E-05  1.14480447E-04  1.73316577E-04  2.37472960E-04  2.93971743E-04  3.63354572E-04  4.24538704E-04  4.74000572E-04  5.18384280E-04  4.93402181E-04  4.45031274E-04  3.74839737E-04  3.08606222E-04  3.00723946E-04  2.99612794E-04  2.84167820E-04  2.72914626E-04  2.33807317E-04  1.82842978E-04  1.50668059E-04  1.06593437E-04  7.68620824E-05  5.21974135E-05  3.60182302E-05  2.90780547E-05  2.65673280E-05  3.01285449E-05  4.39345369E-05  7.95385272E-05  1.44875679E-04  2.28921893E-04  3.93021349E-04  6.32175290E-04  6.38483669E-04  5.70181856E-04  5.25067433E-04  4.41175229E-04  3.53829494E-04  1.22374447E-04  1.22374447E-04  1.22374447E-04  1.22374447E-04  1.22374447E-04  1.22374447E-04  1.22374447E-04  2.41787486E-04  2.09607511E-04  1.66276516E-04  1.10556759E-04  6.66657983E-05  4.56545836E-05  3.11889956E-05  2.80162566E-05  2.49792933E-05  2.15551204E-05  2.02425784E-05  1.99863097E-05  2.19657649E-05  2.49296190E-05  2.46415128E-05  2.21052189E-05  1.98855993E-05  2.26018308E-05  2.41627193E-05  2.36806415E-05  2.46164182E-05  2.59211252E-05  2.81372837E-05  3.60269315E-05  3.99902375E-05  4.25595325E-05  4.89004052E-05  4.61262911E-05  4.74839210E-05  4.34651950E-05  4.18904606E-05  4.57632373E-05  5.42304731E-05  6.39536429E-05  7.90056859E-05  1.01963568E-04  1.41780523E-04  2.02132842E-04  2.24212267E-04  2.27203259E-04  2.28393795E-04  2.37469962E-04  2.45532139E-04  2.27013624E-04  2.26282876E-04  1.94645200E-04  1.68844844E-04  1.36194499E-04  1.13268113E-04  9.05034300E-05
      8.35996568E-05  1.22374447E-04  1.22374447E-04  1.22374447E-04  1.22374447E-04  1.22374447E-04  1.22374447E-04  1.22374447E-04  1.22374447E-04  1.22374447E-04  1.22374447E-04  1.22374447E-04  1.22374447E-04  1.22374447E-04  1.22374447E-04  1.22374447E-04  1.22374447E-04  1.22374447E-04  1.22374447E-04  1.22374447E-04  1.22374447E-04  1.22374447E-04  1.76859523E-04  1.33142203E-04  1.04401916E-04  9.31259919E-05  1.02444693E-04  1.47581560E-04  2.20598310E-04  2.54651649E-04  2.57157624E-04  2.46404576E-04  2.01226065E-04  1.47504774E-04  8.75295880E-05  5.24248574E-05  4.11146413E-05  3.26561252E-05  3.30525230E-05  3.47796026E-05  3.17398620E-05  3.34288383E-05  3.44987352E-05  4.30138997E-05  5.56347408E-05  8.06815149E-05  1.24899985E-04  1.74492284E-04  2.39832659E-04  2.95787414E-04  3.80463264E-04  4.54047858E-04  5.32049342E-04  5.60278589E-04  5.72465500E-04  5.63952954E-04  4.37464976E-04  3.51863776E-04  3.33297393E-04  3.66426218E-04  3.82767324E-04  3.20812892E-04  2.46826848E-04  1.94145968E-04  1.44491881E-04  9.76202915E-05  6.55271127E-05  4.24581124E-05  3.52328260E-05  2.96074643E-05  2.97246912E-05  3.35449490E-05  4.32818969E-05  7.93701588E-05  1.38321637E-04  2.66266672E-04  4.72013054E-04  5.92999221E-04  5.81116428E-04  5.60472398E-04  4.58200758E-04  3.92790337E-04  1.22374447E-04  1.22374447E-04  1.22374447E-04  1.22374447E-04  1.22374447E-04  1.22374447E-04  1.22374447E-04  1.22374447E-04  2.16411660E-04  1.95878148E-04  1.70646595E-04  1.19402651E-04  7.30853896E-05  4.65435042E-05  3.65213823E-05  2.94296628E-05  2.85021026E-05  2.67254009E-05  2.42916513E-05  2.43395466E-05  2.96105852E-05  3.29715861E-05  3.33017927E-05  2.58118977E-05  2.29782105E-05  2.36977299E-05  2.31169844E-05  2.35426453E-05  2.61004736E-05  2.64556969E-05  3.22228131E-05  4.20990087E-05  4.81276860E-05  5.25688404E-05  5.65615777E-05  5.27329007E-05  4.79801132E-05  5.25294912E-05  5.03834788E-05  5.18362368E-05  5.42584058E-05  6.19968812E-05  6.94929711E-05  7.54779359E-05  9.46827091E-05  1.26826907E-04  1.44906382E-04  1.45648414E-04  1.55122751E-04  1.71017601E-04  1.80490153E-04  1.85326558E-04  2.02827241E-04  1.91631916E-04  1.42486209E-04  1.30655367E-04  1.14780937E-04  9.39347926E-05
      1.22374447E-04  1.22374447E-04  1.22374447E-04  1.22374447E-04  1.22374447E-04  1.22374447E-04  1.22374447E-04  1.22374447E-04  1.22374447E-04  1.22374447E-04  1.22374447E-04  1.22374447E-04  1.22374447E-04  1.22374447E-04  1.22374447E-04  1.22374447E-04  1.22374447E-04  1.22374447E-04  1.22374447E-04  1.22374447E-04  1.22374447E-04  2.23103412E-04  1.72991669E-04  1.26270364E-04  9.15012889E-05  7.93354827E-05  9.83497037E-05  1.37277684E-04  1.89256677E-04  2.18066859E-04  1.98384512E-04  1.71718948E-04  1.48610509E-04  1.24433092E-04  8.08089119E-05  6.30005788E-05  4.14218471E-05  3.31597894E-05  3.19987602E-05  3.20015710E-05  3.20454513E-05  3.15843297E-05  3.78167259E-05  4.72022901E-05  6.02638611E-05  7.76015091E-05  1.24636142E-04  1.92111500E-04  2.58169569E-04  3.23114361E-04  4.07250487E-04  4.81157188E-04  5.71849859E-04  5.79409626E-04  6.27614221E-04  6.09457048E-04  4.83691709E-04  3.81509030E-04  3.62552177E-04  4.13823898E-04  4.68541684E-04  4.04350624E-04  3.19906455E-04  2.15806600E-04  1.59576814E-04  9.53226422E-05  5.63971221E-05  3.91128953E-05  2.89681167E-05  2.76422646E-05  2.83542472E-05  3.38620799E-05  4.41620368E-05  7.29202723E-05  1.36217604E-04  2.53129200E-04  4.01639830E-04  5.01070917E-04  5.19730961E-04  4.79460149E-04  4.25483425E-04  3.57488041E-04  1.22374447E-04  1.22374447E-04  1.22374447E-04  1.22374447E-04  1.22374447E-04  1.22374447E-04  1.22374447E-04  1.22374447E-04  1.22374447E-04  1.77551295E-04  1.61328635E-04  1.17764503E-04  8.01687387E-05  4.92942463E-05  3.93124927E-05  3.23185144E-05  3.28840588E-05  3.04587250E-05  2.84778913E-05  2.99145867E-05  3.76413745E-05  4.12126261E-05  4.09295700E-05  3.55155363E-05  3.07379030E-05  2.49644053E-05  2.19441180E-05  2.11281063E-05  2.57182048E-05  2.98175234E-05  3.87072995E-05  4.33836653E-05  5.38082403E-05  6.59340024E-05  6.55423670E-05  5.92175516E-05  5.24432224E-05  5.84269218E-05  5.25599525E-05  5.63836867E-05  5.41159742E-05  5.62672364E-05  6.91579832E-05  6.49552773E-05  7.65652619E-05  8.77898389E-05  1.00485319E-04  1.07071130E-04  1.07522626E-04  1.16196917E-04  1.34098084E-04  1.54462728E-04  1.74260429E-04  1.75262620E-04  1.46358888E-04  1.18183858E-04  9.68703337E-05  8.72746123E-05
      1.22374447E-04  1.22374447E-04  1.22374447E-04  1.22374447E-04  1.22374447E-04  1.22374447E-04  1.22374447E-04  1.22374447E-04  1.22374447E-04  1.22374447E-04  1.22374447E-04  1.22374447E-04  1.22374447E-04  1.22374447E-04  1.22374447E-04  1.22374447E-04  1.22374447E-04  1.22374447E-04  1.22374447E-04  1.22374447E-04  3.15523379E-04  2.89984116E-04  2.30123961E-04  1.58922266E-04  1.00444671E-04  7.75195869E-05  9.49835196E-05  1.20314039E-04  1.46236007E-04  1.40443675E-04  1.33311226E-04  1.19197330E-04  1.15264881E-04  1.00148994E-04  7.24971685E-05  6.11389288E-05  4.05950706E-05  3.20862209E-05  2.78946475E-05  3.05745215E-05  2.92478868E-05  3.29925896E-05  4.73913147E-05  6.02819936E-05  7.06209730E-05  9.62668229E-05  1.62400106E-04  2.27568637E-04  3.03896279E-04  3.73140982E-04  4.51988398E-04  5.50043725E-04  6.28903460E-04  6.50062184E-04  6.65700532E-04  6.99765975E-04  4.92060506E-04  3.78925156E-04  4.12856332E-04  4.61758483E-04  5.20063753E-04  4.81720410E-04  3.76304860E-04  1.22374447E-04  1.22374447E-04  9.67944227E-05  5.57629216E-05  3.53298632E-05  2.62266401E-05  2.33870092E-05  2.64373455E-05  3.53146606E-05  4.58643435E-05  6.68550591E-05  1.27138445E-04  2.29610737E-04  3.38805444E-04  3.84227573E-04  4.29434469E-04  4.06848033E-04  3.82403340E-04  3.51369426E-04  2.90421755E-04  2.48817782E-04  1.79063346E-04  1.08994010E-04  1.22374447E-04  1.22374447E-04  1.22374447E-04  1.22374447E-04  1.22374447E-04  1.22374447E-04  1.28234337E-04  1.09379551E-04  8.04095756E-05  5.28565429E-05  3.82674458E-05  3.22932949E-05  3.38325726E-05  3.00288750E-05  3.28987931E-05  3.81799425E-05  4.65109631E-05  5.38073541E-05  5.55749101E-05  5.35151226E-05  4.43178608E-05  3.81663209E-05  2.81504165E-05  2.56235859E-05  3.10354470E-05  3.80960272E-05  4.07918844E-05  4.74286897E-05  6.01475853E-05  7.27457831E-05  7.77056973E-05  6.82871743E-05  5.72870740E-05  5.56143423E-05  5.90431695E-05  6.09097816E-05  5.83401268E-05  6.45920037E-05  6.92375303E-05  6.52058007E-05  6.54565716E-05  7.13580783E-05  6.95576276E-05  6.58686642E-05  7.27759809E-05  8.55436067E-05  1.04990987E-04  1.19442840E-04  1.28813397E-04  1.32912964E-04  1.22374606E-04  9.01273072E-05  7.95325890E-05  8.12275314E-05
      1.22374447E-04  1.22374447E-04  1.22374447E-04  1.22374447E-04  1.22374447E-04  1.22374447E-04  1.22374447E-04  1.22374447E-04  1.22374447E-04  1.22374447E-04  1.22374447E-04  1.22374447E-04  1.22374447E-04  1.22374447E-04  1.22374447E-04  1.22374447E-04  1.22374447E-04  1.22374447E-04  2.67815203E-04  3.08439221E-04  3.85268881E-04  3.51377142E-04  2.59677282E-04  1.63629538E-04  9.58795903E-05  7.60793150E-05  8.13456081E-05  9.20992909E-05  1.03277657E-04  8.38716098E-05  8.03087276E-05  8.34695097E-05  8.47435757E-05  8.04481660E-05  6.82966219E-05  5.50265108E-05  3.97408766E-05  3.07167497E-05  3.13363874E-05  3.12424280E-05  3.19260468E-05  3.44544840E-05  4.57917357E-05  6.24709541E-05  8.11001868E-05  1.21762042E-04  1.97603542E-04  2.70248425E-04  3.68932356E-04  4.49361641E-04  5.21936598E-04  6.03955120E-04  7.22220807E-04  7.33891031E-04  7.80451474E-04  7.19107603E-04  5.53217717E-04  4.57561783E-04  4.88946875E-04  5.12697593E-04  5.35841188E-04  5.45315503E-04  1.22374447E-04  1.22374447E-04  1.22374447E-04  1.22374447E-04  5.20421612E-05  3.40910188E-05  2.63938696E-05  2.65099838E-05  2.69164604E-05  3.34759988E-05  4.65437597E-05  6.78483287E-05  1.07953444E-04  1.84420543E-04  2.60883258E-04  2.90047642E-04  3.45003451E-04  3.59125788E-04  3.48188997E-04  2.96174621E-04  2.46651434E-04  2.27026336E-04  1.52075846E-04  8.39886425E-05  1.22374447E-04  1.22374447E-04  1.22374447E-04  1.22374447E-04  1.22374447E-04  1.22374447E-04  9.31448075E-05  8.31391398E-05  6.30319215E-05  4.66831729E-05  3.48147520E-05  3.55510391E-05  3.68078845E-05  2.98278378E-05  3.52110536E-05  4.44519733E-05  6.02069842E-05  7.12489445E-05  7.44091558E-05  7.96905391E-05  6.26800928E-05  4.59417573E-05  3.72817260E-05  3.67387615E-05  4.43667415E-05  5.40966671E-05  5.28917234E-05  6.21174822E-05  8.11396431E-05  9.30545476E-05  8.92502999E-05  8.16981781E-05  7.10335170E-05  6.30819084E-05  6.10747881E-05  6.61893181E-05  5.97369727E-05  6.08416059E-05  5.85036960E-05  5.75447822E-05  5.35775004E-05  4.95838399E-05  4.41402710E-05  4.29547644E-05  5.33904087E-05  6.42455027E-05  1.22374447E-04  1.22374447E-04  9.46052923E-05  9.97078218E-05  9.60455368E-05  7.69810819E-05  7.98606393E-05  7.30773656E-05
      5.21370431E-05  5.48604345E-05  5.61120147E-05  1.22374447E-04  1.22374447E-04  2.97876155E-05  3.28779215E-05  3.44158817E-05  3.68037221E-05  1.22374447E-04  1.22374447E-04  1.22374447E-04  1.22374447E-04  1.22374447E-04  1.22374447E-04  1.22374447E-04  1.22374447E-04  3.60097880E-04  4.10663901E-04  4.26390219E-04  3.91942734E-04  3.09175993E-04  2.27364093E-04  1.33031076E-04  7.99012472E-05  6.29615088E-05  6.26216230E-05  6.09903540E-05  6.42541090E-05  5.40448987E-05  5.91974643E-05  5.64983929E-05  6.19805466E-05  6.65756814E-05  6.39334934E-05  4.72233362E-05  3.64206326E-05  3.08499846E-05  3.26106569E-05  3.48158605E-05  3.71968851E-05  3.85846721E-05  4.62903165E-05  6.32294687E-05  9.62979028E-05  1.34936320E-04  2.09022392E-04  3.11325267E-04  4.24548493E-04  4.79486997E-04  5.86698173E-04  6.22953696E-04  6.73762302E-04  7.34854169E-04  8.47666540E-04  7.86200945E-04  5.52851873E-04  4.17051480E-04  4.42215232E-04  4.29844635E-04  4.92864802E-04  4.92389906E-04  1.22374447E-04  1.22374447E-04  1.22374447E-04  1.22374447E-04  4.60601965E-05  3.05928895E-05  2.64467519E-05  2.54073401E-05  2.74118717E-05  3.17718695E-05  4.43158171E-05  7.01136835E-05  1.04998769E-04  1.49139379E-04  1.86611087E-04  2.18548281E-04  2.73187443E-04  3.12760801E-04  2.81956403E-04  2.32041560E-04  2.03041811E-04  1.64995219E-04  1.09154427E-04  6.01089646E-05  1.22374447E-04  1.22374447E-04  1.22374447E-04  1.22374447E-04  1.22374447E-04  1.22374447E-04  1.22374447E-04  6.10043513E-05  5.43020311E-05  3.90222591E-05  3.40089578E-05  3.36948165E-05  2.82174119E-05  2.92105633E-05  3.55524834E-05  4.83202573E-05  7.21955608E-05  1.01821097E-04  8.98426654E-05  8.03965103E-05  7.69020099E-05  5.53341642E-05  4.91986496E-05  5.04497391E-05  6.22144051E-05  6.95057907E-05  7.35612585E-05  8.66141189E-05  1.23335488E-04  1.40989603E-04  1.28504739E-04  1.03987668E-04  7.85414087E-05  7.00805891E-05  6.81877529E-05  7.65240809E-05  6.93932418E-05  6.24819981E-05  6.00764368E-05  5.33162468E-05  4.53533671E-05  3.57704182E-05  3.05621704E-05  3.38193880E-05  4.00415545E-05  4.87706464E-05  1.22374447E-04  1.22374447E-04  1.22374447E-04  1.22374447E-04  8.84165734E-05  7.87000690E-05  7.66372558E-05  7.09882182E-05
      5.19418628E-05  5.48835694E-05  4.89627798E-05  4.19160870E-05  3.15636682E-05  2.77060428E-05  2.95050798E-05  3.33428794E-05  4.13683978E-05  5.05342267E-05  1.22374447E-04  1.22374447E-04  1.22374447E-04  1.22374447E-04  1.22374447E-04  1.22374447E-04  2.97365732E-04  4.21311228E-04  5.33378813E-04  4.44085080E-04  3.78507470E-04  2.65027517E-04  1.94230826E-04  1.16432987E-04  7.71258350E-05  5.87208255E-05  4.88821002E-05  4.85499400E-05  4.59038909E-05  4.39542708E-05  4.71625562E-05  5.23729638E-05  6.14731293E-05  6.40895896E-05  5.68398570E-05  4.36280916E-05  3.52558893E-05  3.22242991E-05  3.34049896E-05  4.12186447E-05  4.05408186E-05  4.87320535E-05  6.14839295E-05  8.37766293E-05  1.22170546E-04  1.75263678E-04  2.68777884E-04  4.29558020E-04  5.91134837E-04  5.75738532E-04  6.40134970E-04  6.01462315E-04  5.87220505E-04  6.37147157E-04  4.97044097E-04  4.41643158E-04  3.00224300E-04  2.31959793E-04  2.75496552E-04  3.01280652E-04  3.50562127E-04  3.75090254E-04  3.29112212E-04  1.22374447E-04  1.22374447E-04  1.22374447E-04  1.22374447E-04  2.56089044E-05  2.19790094E-05  2.16512787E-05  2.48090382E-05  3.05371479E-05  4.42503247E-05  7.74767867E-05  1.09609413E-04  1.22374447E-04  1.22374447E-04  1.22374447E-04  2.50992960E-04  2.56831718E-04  1.22374447E-04  1.85729786E-04  1.59521633E-04  1.11255475E-04  7.32532132E-05  1.22374447E-04  1.22374447E-04  1.22374447E-04  1.22374447E-04  1.22374447E-04  1.22374447E-04  1.22374447E-04  1.22374447E-04  1.22374447E-04  4.45908977E-05  3.39409915E-05  3.19925422E-05  3.12409187E-05  2.49432538E-05  2.94446273E-05  3.58956474E-05  4.93024736E-05  8.04874818E-05  1.12271582E-04  1.11484321E-04  8.73463180E-05  8.09783763E-05  7.22346504E-05  6.93729018E-05  7.12519172E-05  8.53076218E-05  1.11131741E-04  1.13517675E-04  1.23206773E-04  1.55122325E-04  1.82447419E-04  1.69308291E-04  1.48002080E-04  1.16866975E-04  9.66491460E-05  9.32954693E-05  9.72088281E-05  8.50558501E-05  7.83290403E-05  6.76097703E-05  4.76435142E-05  3.55185000E-05  3.01041418E-05  2.26363263E-05  2.28772390E-05  2.83252162E-05  3.86209530E-05  1.22374447E-04  1.22374447E-04  1.22374447E-04  1.22374447E-04  1.10680279E-04  9.97365084E-05  9.45132021E-05  8.84696909E-05
      5.55305061E-05  5.84808972E-05  5.07401597E-05  4.15773141E-05  3.53996390E-05  2.96732029E-05  3.29532371E-05  3.79596204E-05  4.69603143E-05  5.86391950E-05  8.69827428E-05  1.22374447E-04  1.22374447E-04  1.22374447E-04  1.22374447E-04  2.01563277E-04  2.99814516E-04  3.77594493E-04  4.41478321E-04  4.14471642E-04  3.42213195E-04  2.29341523E-04  1.78434632E-04  1.00264298E-04  6.80679209E-05  5.12505673E-05  4.26285598E-05  4.35904092E-05  4.52906177E-05  4.66709755E-05  5.51495965E-05  6.28461689E-05  6.29748521E-05  6.26781659E-05  5.31218428E-05  3.99859348E-05  3.63203602E-05  3.61879273E-05  3.99970877E-05  4.53662661E-05  4.68413092E-05  6.05471248E-05  8.64024980E-05  1.11220850E-04  1.59693370E-04  2.32671829E-04  3.54076854E-04  4.86445433E-04  6.13066427E-04  5.69877684E-04  5.22417047E-04  4.43213887E-04  4.17408341E-04  3.62338876E-04  2.66506361E-04  2.31797235E-04  1.81279703E-04  1.22953527E-04  1.36985514E-04  1.65284873E-04  1.91888781E-04  2.07951097E-04  1.76804384E-04  1.65940572E-04  1.22374447E-04  1.22374447E-04  1.22374447E-04  1.22374447E-04  1.22374447E-04  2.26058513E-05  1.22374447E-04  1.22374447E-04  1.22374447E-04  1.22374447E-04  1.22374447E-04  1.22374447E-04  1.22374447E-04  1.22374447E-04  1.22374447E-04  1.22374447E-04  1.22374447E-04  1.22374447E-04  1.22374447E-04  1.22374447E-04  1.22374447E-04  1.22374447E-04  1.22374447E-04  1.22374447E-04  1.22374447E-04  1.22374447E-04  1.22374447E-04  1.22374447E-04  1.22374447E-04  1.22374447E-04  4.12381548E-05  3.50462067E-05  3.37535424E-05  2.81694932E-05  2.29886578E-05  2.64867667E-05  3.16719443E-05  5.05165303E-05  7.44774868E-05  9.89316158E-05  1.14971708E-04  9.12482677E-05  7.81356031E-05  8.44612835E-05  9.30747795E-05  1.06265775E-04  1.51224174E-04  2.03467498E-04  2.02341789E-04  2.05627194E-04  2.41598676E-04  2.92533947E-04  2.44838806E-04  2.01587623E-04  1.70315378E-04  1.48582936E-04  1.33468887E-04  1.23151390E-04  9.06719177E-05  9.12792307E-05  7.22690000E-05  5.34060627E-05  3.84662341E-05  2.96806320E-05  2.19941936E-05  2.15343511E-05  2.12684763E-05  3.32820175E-05  1.22374447E-04  1.22374447E-04  1.22374447E-04  1.22374447E-04  1.22374447E-04  1.33094921E-04  1.10223026E-04  1.01105839E-04
      5.76472278E-05  5.95033447E-05  6.48452553E-05  5.35925031E-05  4.59389327E-05  3.98480983E-05  4.48006400E-05  5.82328694E-05  6.76948202E-05  7.14893538E-05  8.84824166E-05  1.22374447E-04  1.22374447E-04  1.22374447E-04  1.27160154E-04  2.13076501E-04  3.07861174E-04  3.46851811E-04  3.75472424E-04  4.05560446E-04  3.66734726E-04  2.32690861E-04  1.33441120E-04  7.70353641E-05  5.19064593E-05  4.44663735E-05  3.68573029E-05  4.15253966E-05  4.97533315E-05  6.39347570E-05  7.44744612E-05  7.63594945E-05  6.95484636E-05  6.49635507E-05  5.53418198E-05  4.23329435E-05  4.18863673E-05  4.73867360E-05  4.80313983E-05  5.41756619E-05  6.13407121E-05  7.70540589E-05  1.02413822E-04  1.42927829E-04  2.02940402E-04  2.97997681E-04  4.65884964E-04  5.41421241E-04  5.83751755E-04  5.82487280E-04  4.30423400E-04  3.31722797E-04  2.81879329E-04  2.39155421E-04  1.93969442E-04  1.49453287E-04  1.19008171E-04  8.23107000E-05  8.11696713E-05  9.88744967E-05  1.08620321E-04  1.09808526E-04  9.74458464E-05  9.83472201E-05  1.03631258E-04  1.22374447E-04  1.22374447E-04  1.22374447E-04  1.22374447E-04  1.22374447E-04  1.22374447E-04  1.22374447E-04  1.22374447E-04  1.22374447E-04  1.22374447E-04  1.22374447E-04  1.22374447E-04  1.22374447E-04  1.22374447E-04  1.22374447E-04  1.22374447E-04  1.22374447E-04  1.22374447E-04  1.22374447E-04  1.22374447E-04  1.22374447E-04  1.22374447E-04  1.22374447E-04  1.22374447E-04  1.22374447E-04  1.22374447E-04  1.22374447E-04  1.22374447E-04  3.22950677E-05  3.47938109E-05  3.23711451E-05  3.19144812E-05  3.02261892E-05  2.64154101E-05  2.55333519E-05  3.15737199E-05  5.26469336E-05  7.40311217E-05  1.03195195E-04  1.30341866E-04  1.30267398E-04  1.17744916E-04  1.17603053E-04  1.38486972E-04  1.72665474E-04  2.35629324E-04  3.08386734E-04  3.36443739E-04  3.82090041E-04  4.16981426E-04  4.18754922E-04  3.87022850E-04  3.10554218E-04  2.61199104E-04  2.24283916E-04  1.92929960E-04  1.62996392E-04  1.46023419E-04  1.29562041E-04  9.81697515E-05  7.51287792E-05  4.60200597E-05  3.06332574E-05  1.96818732E-05  1.90477973E-05  2.03748057E-05  1.22374447E-04  1.22374447E-04  1.22374447E-04  1.22374447E-04  1.22374447E-04  1.22374447E-04  1.97872756E-04  1.74033276E-04  1.32587932E-04
      5.34804669E-05  5.99429475E-05  6.37312975E-05  6.33862818E-05  5.88598647E-05  5.63872155E-05  6.55879353E-05  9.07532898E-05  1.04438431E-04  1.04099562E-04  9.82897910E-05  1.02455379E-04  1.09653468E-04  1.04475247E-04  1.28625783E-04  1.97593237E-04  2.66570451E-04  3.18531488E-04  3.48168735E-04  3.82829528E-04  3.40809702E-04  2.30621240E-04  1.27715290E-04  6.80829445E-05  4.24750844E-05  3.83615512E-05  3.41784561E-05  4.18400355E-05  5.21828013E-05  6.08046091E-05  6.90980983E-05  7.52398078E-05  7.17883265E-05  7.66373399E-05  8.31055543E-05  7.06040715E-05  6.35676980E-05  6.43190462E-05  6.77839958E-05  7.29800241E-05  8.43472039E-05  1.05598628E-04  1.35484490E-04  1.97924035E-04  2.90393058E-04  3.99690138E-04  5.61812747E-04  5.52632180E-04  5.14952248E-04  4.86926892E-04  3.93077450E-04  2.91095673E-04  2.15809680E-04  1.83781695E-04  1.45092889E-04  1.00170383E-04  7.40368117E-05  6.19664614E-05  5.71810619E-05  6.12685559E-05  6.88194717E-05  6.25556521E-05  5.91625716E-05  7.13193848E-05  8.27148460E-05  1.22374447E-04  1.22374447E-04  1.22374447E-04  1.22374447E-04  1.22374447E-04  1.22374447E-04  1.22374447E-04  1.22374447E-04  1.22374447E-04  1.22374447E-04  1.22374447E-04  1.22374447E-04  1.22374447E-04  1.22374447E-04  1.22374447E-04  1.22374447E-04  1.22374447E-04  1.22374447E-04  1.22374447E-04  1.22374447E-04  1.22374447E-04  1.22374447E-04  1.22374447E-04  1.22374447E-04  1.22374447E-04  1.22374447E-04  1.22374447E-04  3.33775296E-05  3.39135005E-05  4.12245285E-05  4.12759338E-05  4.07511927E-05  3.78896242E-05  3.47008748E-05  2.90195605E-05  3.31415903E-05  4.42850280E-05  6.39697952E-05  9.54071404E-05  1.27309282E-04  1.54970561E-04  1.67722933E-04  1.80916724E-04  2.41822265E-04  2.97162396E-04  3.82266909E-04  4.50031410E-04  4.11935125E-04  4.40790306E-04  5.09254004E-04  5.06034355E-04  5.02036819E-04  4.54013710E-04  3.68541870E-04  3.09918609E-04  2.58956231E-04  2.37453145E-04  2.21720761E-04  1.87290922E-04  1.56397942E-04  1.08964754E-04  6.02979468E-05  3.12310758E-05  1.79805389E-05  1.67319296E-05  1.88249168E-05  1.22374447E-04  1.22374447E-04  1.22374447E-04  1.22374447E-04  1.22374447E-04  2.66152096E-04  2.95851724E-04  2.62643897E-04  1.95638925E-04
      5.84657457E-05  7.64835939E-05  7.69589403E-05  7.76757566E-05  8.80376199E-05  9.12316382E-05  1.02202921E-04  1.32535389E-04  1.17690760E-04  1.11322680E-04  9.04697502E-05  9.12912580E-05  8.27137562E-05  8.41829817E-05  9.29965332E-05  1.44855160E-04  1.95195859E-04  2.30176775E-04  2.59903904E-04  2.78889668E-04  2.50213181E-04  1.22374447E-04  1.22374447E-04  1.22374447E-04  1.22374447E-04  3.47030847E-05  3.85272688E-05  4.58462185E-05  5.64476728E-05  6.23313229E-05  6.89035467E-05  7.52270869E-05  7.35142671E-05  8.86737172E-05  9.89908329E-05  1.08545928E-04  1.13045473E-04  1.08211492E-04  1.07296611E-04  1.12755840E-04  1.27011200E-04  1.57661370E-04  1.80798473E-04  2.51377965E-04  3.71933321E-04  4.79972636E-04  5.56515416E-04  5.49211543E-04  5.40757341E-04  4.37341072E-04  3.39685981E-04  2.53322710E-04  1.99097182E-04  1.54892991E-04  1.21468146E-04  7.98383708E-05  5.86308258E-05  4.90160840E-05  4.46270931E-05  4.50932837E-05  4.36982763E-05  4.15256702E-05  4.74628109E-05  6.13116914E-05  8.35898359E-05  8.62821964E-05  1.22374447E-04  1.22374447E-04  1.22374447E-04  1.22374447E-04  1.22374447E-04  1.22374447E-04  1.22374447E-04  1.22374447E-04  1.22374447E-04  1.22374447E-04  1.22374447E-04  1.22374447E-04  1.22374447E-04  1.22374447E-04  1.22374447E-04  1.22374447E-04  1.22374447E-04  1.22374447E-04  1.22374447E-04  1.22374447E-04  1.22374447E-04  1.22374447E-04  1.22374447E-04  1.22374447E-04  1.22374447E-04  3.01259648E-05  3.55321909E-05  3.67678161E-05  4.48625628E-05  5.09117033E-05  4.83526839E-05  5.04192275E-05  4.70057095E-05  3.81529137E-05  4.23020921E-05  4.63358780E-05  6.11481932E-05  8.40410376E-05  1.08556238E-04  1.52118681E-04  2.13714380E-04  2.98857299E-04  3.98314543E-04  4.89441826E-04  5.54448177E-04  4.95371243E-04  4.39407360E-04  4.75013113E-04  5.14489397E-04  5.62708197E-04  5.92712811E-04  5.96422722E-04  5.22409016E-04  4.53995017E-04  3.97895581E-04  4.03017395E-04  3.98725848E-04  3.08065574E-04  2.47047002E-04  1.35226644E-04  6.75430680E-05  3.63620968E-05  2.07583368E-05  2.00519424E-05  2.38784417E-05  1.22374447E-04  1.22374447E-04  1.22374447E-04  1.22374447E-04  1.83236980E-04  2.77649073E-04  3.65992572E-04  3.48164913E-04  3.09310789E-04
      8.07051705E-05  9.83868572E-05  1.16959591E-04  1.03581206E-04  1.15342866E-04  1.19096338E-04  1.53437897E-04  1.77667617E-04  1.61897165E-04  1.32924201E-04  1.06791293E-04  8.84192917E-05  8.12849865E-05  7.13152347E-05  7.20450300E-05  9.29541687E-05  1.29075737E-04  1.82278728E-04  2.20063076E-04  2.16358561E-04  1.22374447E-04  1.22374447E-04  1.22374447E-04  1.22374447E-04  1.22374447E-04  1.22374447E-04  1.22374447E-04  4.74863714E-05  6.12254508E-05  7.69741514E-05  8.83171248E-05  9.20946395E-05  9.35059019E-05  1.03638711E-04  1.16320480E-04  1.54908723E-04  1.79320394E-04  2.03266650E-04  1.84579158E-04  1.75334604E-04  1.77478791E-04  2.25639563E-04  2.50610609E-04  2.74383699E-04  3.92807372E-04  4.80590138E-04  5.54858938E-04  5.15036216E-04  5.18627939E-04  4.14158670E-04  3.22203720E-04  2.39503202E-04  1.85937599E-04  1.44190134E-04  1.01299293E-04  7.17863560E-05  5.62682248E-05  4.77116713E-05  4.20098006E-05  3.46396259E-05  3.04532075E-05  3.33293734E-05  4.13298536E-05  5.76524181E-05  7.40498191E-05  8.99728704E-05  1.05537370E-04  1.22374447E-04  1.22374447E-04  1.22374447E-04  1.22374447E-04  1.22374447E-04  1.22374447E-04  1.22374447E-04  1.22374447E-04  1.22374447E-04  1.22374447E-04  1.22374447E-04  1.22374447E-04  1.22374447E-04  1.22374447E-04  1.22374447E-04  1.22374447E-04  1.22374447E-04  1.22374447E-04  1.22374447E-04  1.22374447E-04  1.22374447E-04  1.22374447E-04  4.17793488E-05  3.56201956E-05  3.52715702E-05  4.49993612E-05  4.60290546E-05  5.18989370E-05  5.98951850E-05  6.88955279E-05  6.44450843E-05  5.56525804E-05  4.97327959E-05  4.88279766E-05  5.18544524E-05  5.68726306E-05  7.00443571E-05  9.88682004E-05  1.48980300E-04  2.17170730E-04  3.12267555E-04  4.77425363E-04  5.80750308E-04  5.85746219E-04  5.05530395E-04  4.53210361E-04  4.79293564E-04  5.03872683E-04  5.84822456E-04  6.47011342E-04  6.50828122E-04  6.34310475E-04  5.84620868E-04  5.44743713E-04  5.95105643E-04  6.27239122E-04  4.61014819E-04  2.99453783E-04  1.59288593E-04  8.11382177E-05  4.49792075E-05  2.96407384E-05  2.90122331E-05  3.35775234E-05  4.21409538E-05  6.24207660E-05  1.04245622E-04  1.54225310E-04  2.23386150E-04  3.00663363E-04  3.53993280E-04  3.43256510E-04  3.49748619E-04
      9.18666022E-05  1.23270031E-04  1.46214735E-04  1.50873577E-04  1.53302424E-04  1.78923124E-04  2.05008388E-04  2.48077171E-04  2.35022266E-04  1.94829507E-04  1.27852014E-04  9.15311318E-05  7.65325675E-05  6.83573883E-05  6.96360287E-05  8.29980444E-05  1.07204996E-04  1.45160052E-04  1.83279536E-04  1.22374447E-04  1.22374447E-04  1.22374447E-04  1.22374447E-04  1.22374447E-04  1.22374447E-04  1.22374447E-04  1.22374447E-04  5.05265150E-05  7.00016874E-05  8.54788242E-05  1.09652987E-04  1.16826948E-04  1.34660368E-04  1.48862082E-04  1.73849935E-04  2.14216180E-04  2.50302620E-04  3.19086825E-04  2.97176752E-04  2.51273519E-04  2.63648772E-04  2.92867211E-04  2.96056114E-04  3.03390030E-04  4.00247198E-04  4.56941759E-04  4.95066755E-04  4.85335779E-04  4.45665228E-04  3.76716393E-04  3.07729544E-04  2.34254549E-04  1.84221910E-04  1.56852883E-04  1.18788072E-04  8.01742842E-05  6.15109381E-05  5.29844308E-05  4.69553132E-05  3.75957753E-05  3.11020681E-05  3.49160811E-05  4.05202147E-05  5.34606822E-05  7.55205439E-05  1.05056888E-04  1.17690308E-04  1.22374447E-04  1.22374447E-04  1.22374447E-04  1.22374447E-04  1.22374447E-04  1.22374447E-04  1.22374447E-04  1.22374447E-04  1.22374447E-04  1.22374447E-04  1.22374447E-04  1.22374447E-04  1.22374447E-04  1.22374447E-04  1.22374447E-04  1.22374447E-04  1.22374447E-04  1.22374447E-04  1.22374447E-04  1.22374447E-04  1.22374447E-04  4.92951122E-05  4.38581939E-05  3.95660724E-05  3.76534031E-05  4.50431080E-05  4.87219955E-05  5.43848487E-05  6.22340129E-05  6.42808524E-05  5.84024216E-05  5.67615269E-05  5.12391456E-05  4.97627829E-05  5.05385547E-05  5.12507361E-05  6.34083475E-05  9.40334428E-05  1.54363802E-04  1.91662953E-04  2.42146538E-04  3.61482163E-04  4.39334757E-04  4.64636735E-04  4.54770297E-04  4.12632010E-04  4.84476475E-04  5.63430904E-04  6.33934158E-04  6.72676836E-04  7.03734771E-04  6.93507403E-04  6.56857295E-04  7.00192519E-04  7.58653571E-04  7.73204228E-04  5.65167887E-04  3.89995794E-04  2.21333786E-04  1.32331166E-04  7.81730163E-05  5.24992205E-05  4.23064583E-05  4.11048015E-05  4.19580342E-05  5.83760087E-05  8.99595352E-05  1.36900787E-04  2.19513955E-04  2.93674140E-04  3.28798528E-04  3.37820907E-04  3.14090338E-04