# File generated by Flopy version 3.9.1 on 01/23/2025 at 12:09:38.
BEGIN options
  SAVE_FLOWS
  SAVE_SPECIFIC_DISCHARGE
  SAVE_SATURATION
END options

BEGIN griddata
  icelltype
    CONSTANT  0
  k  LAYERED
    INTERNAL  FACTOR  1.0
      2.39612225E-07  2.82359139E-07  3.85708638E-07  6.01596057E-07  8.59978947E-07  8.95213676E-07  9.05768935E-07  8.85758270E-07  9.80172447E-07  9.56842998E-07  8.44181727E-07  7.64207219E-07  7.15281395E-07  7.31872107E-07  8.44882737E-07  1.10323700E-06  9.47009034E-07  9.47009034E-07  9.47009034E-07  9.47009034E-07
      9.47009034E-07  5.21047673E-07  3.62928546E-07  2.41559022E-07  1.53120494E-07  1.14274431E-07  1.10246567E-07  9.12371477E-08  9.01079139E-08  1.03888555E-07  1.28754575E-07  1.67291925E-07  2.50200819E-07  2.94067944E-07  3.51215916E-07  4.56582932E-07  6.87798892E-07  1.06796217E-06  1.41377757E-06  1.42643835E-06
      1.38194428E-06  1.32085557E-06  1.29389886E-06  1.64412289E-06  2.12487998E-06  2.61708645E-06  3.24488623E-06  4.31197721E-06  5.34329841E-06  6.52312928E-06  6.88802495E-06  7.40095035E-06  6.87401784E-06  4.78299468E-06  2.74987489E-06  1.82802831E-06  1.21381822E-06  1.02095252E-06  9.63562840E-07  1.19558761E-06
      1.97740817E-06  3.04313814E-06  3.33356682E-06  3.21157214E-06  2.61409690E-06  1.98161809E-06  1.49945474E-06  1.17285130E-06  8.62447845E-07  5.95130800E-07  3.31291843E-07  2.78981086E-07  2.01239322E-07  1.70639475E-07  1.34679516E-07  1.06731276E-07  9.25111656E-08  9.10417163E-08  8.54374454E-08  9.28533883E-08
      1.12444724E-07  1.35130096E-07  1.97921536E-07  3.20121840E-07  5.63773106E-07  1.01224190E-06  1.82716145E-06  2.56668356E-06  3.45576481E-06  9.47009034E-07  5.33851917E-06  6.13205106E-06  7.15590104E-06  6.77679222E-06  6.18278221E-06  5.35115972E-06  4.27094677E-06  4.24041639E-06  3.97501280E-06  3.79168412E-06
      2.85858119E-06  1.75266949E-06  1.21507296E-06  7.55715560E-07  4.77874808E-07  3.50826270E-07  3.23199693E-07  3.34159212E-07  4.28127104E-07  6.09180748E-07  7.05150568E-07  7.87713025E-07  1.01767226E-06  1.23547395E-06  1.38931069E-06  1.34400770E-06  1.36429323E-06  1.34703917E-06  1.20843931E-06  1.08442887E-06
      9.24228389E-07  7.86388286E-07  6.27701053E-07  5.09632682E-07  5.38214165E-07  6.14653004E-07  6.48482456E-07  5.88887595E-07  5.62674217E-07  5.31289590E-07  4.26433526E-07  2.98903569E-07  1.98940289E-07  9.47009034E-07  9.47009034E-07  9.47009034E-07  9.47009034E-07  2.65251528E-06  3.17989861E-06  2.84044761E-06
      3.19726317E-07  3.46236557E-07  4.10624450E-07  7.47852609E-07  1.16966590E-06  1.27704564E-06  1.47236337E-06  1.43476325E-06  1.53939402E-06  1.42394406E-06  1.23076909E-06  1.04767935E-06  8.69065644E-07  7.69771940E-07  8.41330846E-07  9.47009034E-07  9.47009034E-07  9.47009034E-07  9.47009034E-07  9.47009034E-07
      9.47009034E-07  1.01344070E-06  6.88213607E-07  3.92509467E-07  2.32450574E-07  1.48601698E-07  1.16755779E-07  9.83187173E-08  9.03800979E-08  1.10226112E-07  1.36805973E-07  1.59013202E-07  2.25428462E-07  3.17583722E-07  4.00339055E-07  5.76333680E-07  9.19054437E-07  1.23968490E-06  1.42324538E-06  1.22457670E-06
      1.25344680E-06  1.16766932E-06  1.43305663E-06  2.02139944E-06  2.80630519E-06  3.29681471E-06  3.92855679E-06  4.26474262E-06  4.92606473E-06  5.56007882E-06  5.65238321E-06  6.02364080E-06  6.10715694E-06  4.27686410E-06  2.94518375E-06  1.77081518E-06  1.12740675E-06  9.39512959E-07  8.52902020E-07  1.09010286E-06
      1.75074811E-06  2.22298587E-06  2.41578118E-06  2.46058796E-06  2.01276445E-06  1.44042028E-06  1.13650055E-06  9.14060980E-07  5.13683087E-07  3.81704698E-07  2.65929514E-07  2.07068458E-07  1.51016769E-07  1.30536855E-07  9.42794868E-08  7.81112426E-08  7.32944044E-08  7.84918391E-08  8.48693726E-08  9.33827844E-08
      1.28083422E-07  1.59958085E-07  2.49534163E-07  4.56941508E-07  7.72693331E-07  1.49724040E-06  2.42793057E-06  9.47009034E-07  9.47009034E-07  9.47009034E-07  3.48047767E-06  3.84890474E-06  4.34414354E-06  5.10997583E-06  4.78307870E-06  4.52460343E-06  4.38414393E-06  4.57844461E-06  5.48120876E-06  4.84270128E-06
      3.33116299E-06  2.25861774E-06  1.45981259E-06  9.73943971E-07  6.50845630E-07  4.95032783E-07  4.24999953E-07  4.12738945E-07  5.43705793E-07  7.00528173E-07  8.04433080E-07  8.66606346E-07  9.41455302E-07  9.76751846E-07  1.05283503E-06  1.09558157E-06  1.23786641E-06  1.42563513E-06  1.23501960E-06  1.19304105E-06
      9.49348296E-07  8.24975334E-07  6.19235452E-07  5.27608731E-07  5.71633600E-07  6.16673484E-07  6.46204486E-07  5.42576910E-07  4.89883220E-07  4.29022574E-07  3.71492138E-07  2.80767974E-07  9.47009034E-07  9.47009034E-07  9.47009034E-07  9.47009034E-07  9.47009034E-07  9.47009034E-07  2.48830759E-06  2.64547094E-06
      5.40845517E-07  5.41976749E-07  6.56207093E-07  1.10302625E-06  1.65272715E-06  1.91860762E-06  2.15892984E-06  2.16881808E-06  2.29379801E-06  2.19770065E-06  1.73437837E-06  1.34464977E-06  1.02245347E-06  9.31522734E-07  9.01695714E-07  9.47009034E-07  9.47009034E-07  9.47009034E-07  9.47009034E-07  9.47009034E-07
      9.47009034E-07  9.47009034E-07  1.12845074E-06  6.36520659E-07  3.37470205E-07  1.97983697E-07  1.28556672E-07  1.05720090E-07  9.89106538E-08  1.21443943E-07  1.35328312E-07  1.65988497E-07  2.51061865E-07  3.48750470E-07  4.67376900E-07  6.49271840E-07  1.08905131E-06  1.44588053E-06  1.63301721E-06  1.38214306E-06
      1.14961168E-06  1.16357140E-06  1.46928375E-06  2.08263218E-06  3.12547795E-06  3.96064939E-06  3.94560570E-06  3.37833889E-06  3.62419247E-06  3.99012481E-06  4.49219077E-06  4.54052843E-06  4.22835179E-06  3.02547103E-06  2.15713381E-06  1.41002297E-06  9.43776700E-07  7.67879382E-07  6.79665801E-07  9.32667921E-07
      1.25865010E-06  1.63899158E-06  1.76554238E-06  1.69640809E-06  1.37189840E-06  9.66758911E-07  8.06898423E-07  6.10753916E-07  3.13997240E-07  2.24075189E-07  2.08673388E-07  1.94971812E-07  1.40247744E-07  1.06858734E-07  7.79190276E-08  6.91166882E-08  7.15579104E-08  7.47310052E-08  8.18737323E-08  1.02205502E-07
      1.36705822E-07  1.91625604E-07  2.98160502E-07  5.73856582E-07  1.04026438E-06  1.91117329E-06  9.47009034E-07  9.47009034E-07  9.47009034E-07  9.47009034E-07  9.47009034E-07  9.47009034E-07  2.97679006E-06  3.44864648E-06  3.97646641E-06  3.70975302E-06  3.94053605E-06  4.65635919E-06  5.44435775E-06  4.96772396E-06
      3.68236087E-06  2.85315656E-06  1.85983130E-06  1.23128947E-06  8.15828142E-07  6.58652652E-07  6.40265009E-07  5.69136084E-07  6.25779095E-07  7.76619417E-07  8.75511179E-07  8.44828007E-07  7.88418214E-07  8.06258142E-07  8.34231497E-07  9.96932627E-07  1.36196293E-06  1.45996486E-06  1.43381365E-06  1.29555497E-06
      1.05869469E-06  9.32338241E-07  7.07543882E-07  5.90328629E-07  6.04074824E-07  6.13038157E-07  6.23389884E-07  5.39819767E-07  3.99250440E-07  3.63701623E-07  3.26725869E-07  9.47009034E-07  9.47009034E-07  9.47009034E-07  9.47009034E-07  9.47009034E-07  9.47009034E-07  9.47009034E-07  9.47009034E-07  9.47009034E-07
      8.33845971E-07  1.01368107E-06  1.07821603E-06  1.73685188E-06  2.43163614E-06  2.94425260E-06  3.31711142E-06  3.31794191E-06  3.23258250E-06  2.98247922E-06  2.40561995E-06  1.74785944E-06  1.28933811E-06  9.13464033E-07  9.47009034E-07  9.47009034E-07  9.47009034E-07  9.47009034E-07  9.47009034E-07  9.47009034E-07
      9.47009034E-07  9.47009034E-07  9.47009034E-07  8.65624007E-07  3.90012708E-07  2.28469163E-07  1.40718499E-07  1.16730271E-07  1.05703144E-07  1.21819609E-07  1.55006041E-07  2.03755887E-07  3.07977982E-07  4.14746825E-07  5.81753543E-07  7.38049320E-07  1.20523004E-06  1.57053904E-06  1.60178825E-06  1.50898261E-06
      1.24298865E-06  1.30420528E-06  1.39129208E-06  1.69877709E-06  2.33103324E-06  3.00518312E-06  2.71554773E-06  2.40007967E-06  2.34873937E-06  2.51159742E-06  2.97742747E-06  3.33501654E-06  2.97173163E-06  2.10156654E-06  1.37906438E-06  8.77237405E-07  7.45746148E-07  6.73754535E-07  6.85783270E-07  7.95184439E-07
      9.16440599E-07  1.06423988E-06  1.10189206E-06  1.00013506E-06  9.06437483E-07  6.83778059E-07  5.88295631E-07  4.86571496E-07  3.01144892E-07  2.36468392E-07  2.01262302E-07  1.76471871E-07  1.24305143E-07  9.35867346E-08  7.55792730E-08  7.04178038E-08  8.09074565E-08  9.10442154E-08  1.07758286E-07  1.42084715E-07
      1.82071706E-07  2.35913690E-07  3.54092794E-07  6.50780604E-07  1.32232403E-06  9.47009034E-07  9.47009034E-07  9.47009034E-07  9.47009034E-07  9.47009034E-07  9.47009034E-07  9.47009034E-07  9.47009034E-07  2.94776861E-06  3.38849528E-06  3.50222423E-06  3.82344354E-06  3.99511349E-06  4.59051509E-06  4.28502381E-06
      3.49049653E-06  2.70739946E-06  1.99549761E-06  1.34122895E-06  8.68699310E-07  8.13181041E-07  7.62382750E-07  6.84674302E-07  7.84598725E-07  1.00995833E-06  9.29167203E-07  8.42998936E-07  7.23422757E-07  7.51217680E-07  8.56052426E-07  1.06564650E-06  1.44686194E-06  1.55041275E-06  1.75018114E-06  1.55946118E-06
      1.26465928E-06  9.87398654E-07  7.95591398E-07  6.48618464E-07  6.77331833E-07  6.69587861E-07  5.82990820E-07  4.59073183E-07  3.84913717E-07  3.25606039E-07  2.93073240E-07  9.47009034E-07  9.47009034E-07  9.47009034E-07  9.47009034E-07  9.47009034E-07  9.47009034E-07  9.47009034E-07  9.47009034E-07  9.47009034E-07
      1.08826002E-06  1.05763511E-06  1.32318962E-06  2.20453033E-06  2.75391761E-06  3.76221203E-06  4.28195269E-06  4.04403015E-06  3.76051880E-06  3.36237123E-06  2.78436693E-06  2.05826759E-06  1.57882061E-06  1.05310556E-06  9.47009034E-07  9.47009034E-07  9.47009034E-07  9.47009034E-07  9.47009034E-07  9.47009034E-07
      9.47009034E-07  9.47009034E-07  9.47009034E-07  9.47009034E-07  5.24933413E-07  3.06265650E-07  1.99482729E-07  1.65258924E-07  1.45111768E-07  1.46133605E-07  1.79074652E-07  2.70402765E-07  4.03701189E-07  5.61587952E-07  8.13646343E-07  1.07555214E-06  1.43744220E-06  1.81485923E-06  1.74633827E-06  1.45966033E-06
      1.27005692E-06  1.14084504E-06  9.60898377E-07  1.10106968E-06  1.38754082E-06  1.55732579E-06  1.56741584E-06  1.52600041E-06  1.41990832E-06  1.44784721E-06  1.70609688E-06  1.77571766E-06  1.69872300E-06  1.26289290E-06  8.44445928E-07  5.65681609E-07  5.61174982E-07  6.43097251E-07  6.43559909E-07  6.64233749E-07
      7.03311861E-07  7.39764384E-07  6.74397688E-07  6.35692335E-07  5.88769930E-07  5.45580507E-07  4.72495792E-07  3.69941350E-07  2.83756428E-07  2.48621298E-07  2.21955440E-07  2.14656103E-07  1.47898848E-07  1.26767322E-07  1.09041649E-07  1.03140144E-07  1.13526711E-07  1.33810035E-07  1.54223447E-07  1.86098540E-07
      2.30121182E-07  9.47009034E-07  9.47009034E-07  9.47009034E-07  9.47009034E-07  9.47009034E-07  9.47009034E-07  9.47009034E-07  9.47009034E-07  9.47009034E-07  9.47009034E-07  9.47009034E-07  9.47009034E-07  9.47009034E-07  3.21963249E-06  3.12575936E-06  3.15799952E-06  3.40664358E-06  3.88636282E-06  4.08956551E-06
      3.08046295E-06  2.54440222E-06  2.08204231E-06  1.49392503E-06  9.94823397E-07  9.37064171E-07  8.93663010E-07  8.21602750E-07  8.76140079E-07  9.87416000E-07  7.30886797E-07  7.16736554E-07  7.28476110E-07  7.53611773E-07  8.64444391E-07  1.16313328E-06  1.51312531E-06  1.89070895E-06  2.19562646E-06  2.05627758E-06
      1.54777644E-06  1.14713660E-06  8.92074872E-07  7.00126791E-07  6.48958251E-07  5.49338492E-07  4.35454435E-07  3.65312079E-07  2.96767869E-07  2.75801775E-07  9.47009034E-07  9.47009034E-07  9.47009034E-07  9.47009034E-07  9.47009034E-07  9.47009034E-07  9.47009034E-07  9.47009034E-07  9.47009034E-07  9.47009034E-07
      1.25281802E-06  1.18339089E-06  1.48926902E-06  2.28778921E-06  3.09968293E-06  3.90803141E-06  4.53472924E-06  3.86846117E-06  3.44446119E-06  3.54386833E-06  3.11695167E-06  2.58217620E-06  1.87423811E-06  9.47009034E-07  9.47009034E-07  9.47009034E-07  9.47009034E-07  9.47009034E-07  9.47009034E-07  9.47009034E-07
      9.47009034E-07  9.47009034E-07  9.47009034E-07  9.47009034E-07  9.47009034E-07  4.02894842E-07  3.15063999E-07  2.71296693E-07  2.66929961E-07  2.46921854E-07  2.99923660E-07  3.90275294E-07  6.16550268E-07  8.77263411E-07  1.10244267E-06  1.50637706E-06  1.69991896E-06  1.82781959E-06  1.78065325E-06  1.49800831E-06
      1.19161541E-06  8.94668329E-07  6.59563756E-07  6.78981093E-07  8.03487693E-07  8.59739149E-07  7.88658036E-07  8.22680546E-07  8.74365129E-07  8.89248716E-07  9.47009034E-07  9.47009034E-07  1.06643540E-06  8.55637087E-07  6.44388579E-07  4.56469149E-07  4.59311657E-07  5.52284309E-07  5.37101402E-07  5.04207222E-07
      5.18077307E-07  5.33112712E-07  4.93226690E-07  4.67338928E-07  4.39933788E-07  4.34394322E-07  4.18307570E-07  3.80853208E-07  3.25652875E-07  2.76130226E-07  2.41766514E-07  2.22220497E-07  2.00691224E-07  1.82004950E-07  1.82450524E-07  1.74559256E-07  9.47009034E-07  9.47009034E-07  9.47009034E-07  9.47009034E-07
      9.47009034E-07  9.47009034E-07  9.47009034E-07  9.47009034E-07  9.47009034E-07  9.47009034E-07  9.47009034E-07  9.47009034E-07  9.47009034E-07  9.47009034E-07  9.47009034E-07  9.47009034E-07  9.47009034E-07  9.47009034E-07  2.68639072E-06  2.53031667E-06  3.10311538E-06  3.03614962E-06  3.25149472E-06  3.51328149E-06
      3.00699513E-06  2.57676962E-06  1.83322806E-06  1.37505770E-06  1.13084825E-06  1.14069098E-06  1.06841371E-06  1.02635073E-06  8.59387125E-07  7.92576472E-07  6.14432364E-07  5.83767778E-07  7.02836342E-07  7.93016923E-07  9.81692126E-07  1.24907390E-06  1.78214952E-06  2.23784822E-06  2.70453538E-06  2.67607243E-06
      2.32182747E-06  1.60755834E-06  1.16283065E-06  8.81458508E-07  6.84515703E-07  5.49597304E-07  4.75650085E-07  3.79360380E-07  3.07827881E-07  2.64017822E-07  9.47009034E-07  9.47009034E-07  9.47009034E-07  9.47009034E-07  9.47009034E-07  9.47009034E-07  9.47009034E-07  9.47009034E-07  9.47009034E-07  9.47009034E-07
      1.25166310E-06  1.07877258E-06  1.25993596E-06  1.75270028E-06  2.55375854E-06  3.41812332E-06  3.78672078E-06  3.54250284E-06  3.14048613E-06  3.22070024E-06  2.92725921E-06  2.38258549E-06  1.90040961E-06  9.47009034E-07  9.47009034E-07  9.47009034E-07  9.47009034E-07  9.47009034E-07  9.47009034E-07  9.47009034E-07
      9.47009034E-07  9.47009034E-07  9.47009034E-07  9.47009034E-07  9.47009034E-07  9.47009034E-07  4.45623638E-07  4.23416361E-07  4.58377123E-07  4.84452007E-07  5.87170862E-07  7.00795888E-07  1.01976611E-06  1.42558817E-06  1.66874942E-06  2.16433640E-06  2.48357471E-06  2.78765833E-06  2.42010320E-06  1.72530167E-06
      1.33689470E-06  8.80848034E-07  6.24556603E-07  5.27631903E-07  5.17026045E-07  4.74376994E-07  9.47009034E-07  9.47009034E-07  9.47009034E-07  9.47009034E-07  9.47009034E-07  9.47009034E-07  7.23703989E-07  6.01407176E-07  4.94443409E-07  4.02698039E-07  4.52113225E-07  5.05913525E-07  4.99576728E-07  4.65883941E-07
      4.46728813E-07  3.80736559E-07  4.09164050E-07  3.90826313E-07  3.91186503E-07  3.93459587E-07  4.18216182E-07  4.37940509E-07  4.21226353E-07  3.76381510E-07  3.48832040E-07  3.04635745E-07  2.74753597E-07  2.56306766E-07  2.81751228E-07  9.47009034E-07  9.47009034E-07  9.47009034E-07  9.47009034E-07  9.47009034E-07
      9.47009034E-07  9.47009034E-07  9.47009034E-07  9.47009034E-07  9.47009034E-07  9.47009034E-07  9.47009034E-07  9.47009034E-07  9.47009034E-07  9.47009034E-07  9.47009034E-07  9.47009034E-07  9.47009034E-07  9.47009034E-07  2.31339708E-06  2.48961932E-06  2.46280429E-06  2.82026995E-06  3.18560168E-06  3.37645881E-06
      2.90611705E-06  2.32711557E-06  1.81724200E-06  1.35226718E-06  1.12114339E-06  1.28575728E-06  9.47009034E-07  9.47009034E-07  9.47009034E-07  8.08761933E-07  7.17573567E-07  6.84324831E-07  8.16237601E-07  1.01362542E-06  1.23798058E-06  1.55568858E-06  2.09448775E-06  2.51489218E-06  2.81913684E-06  2.76785567E-06
      2.56902366E-06  1.92286124E-06  1.27678767E-06  9.27610683E-07  6.86615043E-07  5.73493777E-07  5.30049705E-07  4.07760326E-07  3.37184279E-07  2.95962838E-07  9.47009034E-07  9.47009034E-07  9.47009034E-07  9.47009034E-07  9.47009034E-07  9.47009034E-07  9.47009034E-07  9.47009034E-07  9.47009034E-07  9.47009034E-07
      1.00854216E-06  9.01044513E-07  1.02783366E-06  1.46362584E-06  2.07989687E-06  2.77723160E-06  3.05092314E-06  2.74639891E-06  2.47967291E-06  2.31904024E-06  2.16696149E-06  1.89644718E-06  1.76199463E-06  1.69596858E-06  9.47009034E-07  9.47009034E-07  9.47009034E-07  9.47009034E-07  9.47009034E-07  9.47009034E-07
      9.47009034E-07  9.47009034E-07  9.47009034E-07  9.47009034E-07  9.47009034E-07  9.47009034E-07  9.47009034E-07  5.47765319E-07  6.49500712E-07  9.01994751E-07  1.19307642E-06  1.34450361E-06  1.60622453E-06  2.04788030E-06  2.42341896E-06  3.05530110E-06  3.77658552E-06  4.39911569E-06  3.54783939E-06  2.36573826E-06
      1.55336733E-06  9.39961789E-07  6.25090334E-07  4.45771913E-07  4.11403804E-07  9.47009034E-07  9.47009034E-07  9.47009034E-07  9.47009034E-07  9.47009034E-07  9.47009034E-07  9.47009034E-07  9.47009034E-07  4.37272651E-07  3.56436299E-07  3.67611557E-07  4.54651475E-07  4.76029908E-07  4.62867081E-07  4.04576663E-07
      3.75638393E-07  3.54311355E-07  3.42627695E-07  3.64894374E-07  4.18459161E-07  4.89850411E-07  5.11524123E-07  5.54991153E-07  5.98309039E-07  6.19208257E-07  6.02202066E-07  4.93738171E-07  3.89444449E-07  3.78955320E-07  9.47009034E-07  9.47009034E-07  9.47009034E-07  9.47009034E-07  9.47009034E-07  9.47009034E-07
      9.47009034E-07  9.47009034E-07  9.47009034E-07  9.47009034E-07  9.47009034E-07  9.47009034E-07  9.47009034E-07  9.47009034E-07  9.47009034E-07  9.47009034E-07  9.47009034E-07  9.47009034E-07  9.47009034E-07  2.07381076E-06  2.56966686E-06  2.79996815E-06  2.80181331E-06  2.85527502E-06  2.93967870E-06  2.91995326E-06
      2.69769941E-06  2.11833427E-06  1.77924029E-06  1.32485995E-06  1.19965207E-06  1.30834161E-06  9.47009034E-07  9.47009034E-07  9.47009034E-07  9.47009034E-07  7.46505560E-07  8.01506082E-07  9.12687081E-07  1.11258529E-06  1.54174518E-06  1.75959350E-06  2.27561641E-06  2.69428939E-06  2.75517575E-06  2.97901340E-06
      2.62290591E-06  1.90881616E-06  1.40165078E-06  1.03385949E-06  7.10136319E-07  5.96452845E-07  5.66462242E-07  4.73661891E-07  4.19422818E-07  4.04014686E-07  9.47009034E-07  9.47009034E-07  9.47009034E-07  9.47009034E-07  9.47009034E-07  9.47009034E-07  9.47009034E-07  9.47009034E-07  9.47009034E-07  9.47009034E-07
      7.11606794E-07  7.21862078E-07  8.99401780E-07  1.28099877E-06  1.77417225E-06  2.04124903E-06  2.21021610E-06  2.24702692E-06  2.06216959E-06  1.75846560E-06  1.76257511E-06  1.89300423E-06  1.94174961E-06  1.92497784E-06  2.19081275E-06  2.38979555E-06  9.47009034E-07  9.47009034E-07  9.47009034E-07  9.47009034E-07
      9.47009034E-07  9.47009034E-07  9.47009034E-07  9.47009034E-07  9.47009034E-07  9.47009034E-07  9.47009034E-07  9.47009034E-07  1.10823646E-06  1.58897142E-06  2.21643969E-06  2.19592059E-06  2.41013547E-06  2.81589175E-06  4.01539519E-06  4.83023285E-06  5.00412815E-06  5.59133712E-06  4.45051064E-06  2.89254013E-06
      1.75392462E-06  1.02016255E-06  6.79127226E-07  4.89642850E-07  4.11858469E-07  9.47009034E-07  9.47009034E-07  9.47009034E-07  9.47009034E-07  9.47009034E-07  9.47009034E-07  9.47009034E-07  9.47009034E-07  3.35144301E-07  3.32059869E-07  3.83239570E-07  3.90022129E-07  4.14144801E-07  4.27646497E-07  3.77726146E-07
      3.32870241E-07  3.66435672E-07  3.46713598E-07  4.10827382E-07  4.68597761E-07  5.45806386E-07  6.02827879E-07  6.64753944E-07  8.48034247E-07  7.98578335E-07  7.86715590E-07  7.16691699E-07  6.62782570E-07  6.75243824E-07  9.47009034E-07  9.47009034E-07  9.47009034E-07  9.47009034E-07  9.47009034E-07  9.47009034E-07
      9.47009034E-07  9.47009034E-07  9.47009034E-07  9.47009034E-07  9.47009034E-07  9.47009034E-07  9.47009034E-07  9.47009034E-07  9.47009034E-07  9.47009034E-07  9.47009034E-07  9.47009034E-07  9.47009034E-07  2.68597486E-06  3.13702612E-06  3.22801786E-06  3.06177896E-06  3.06408596E-06  3.29473039E-06  2.92477584E-06
      2.31274693E-06  2.21129868E-06  1.73961922E-06  1.34647580E-06  1.19194254E-06  1.29216825E-06  1.27582775E-06  9.47009034E-07  9.47009034E-07  9.47009034E-07  8.58256527E-07  1.01116886E-06  1.16320480E-06  1.43697669E-06  1.76808752E-06  1.99355954E-06  2.32805347E-06  3.00957805E-06  2.64609550E-06  2.48713854E-06
      2.07602058E-06  1.76763719E-06  1.30000067E-06  1.05073557E-06  8.37723982E-07  7.37160095E-07  7.01725994E-07  6.20643753E-07  5.70640925E-07  6.24409187E-07  7.11852169E-07  9.47009034E-07  9.47009034E-07  9.47009034E-07  9.47009034E-07  9.47009034E-07  9.47009034E-07  9.47009034E-07  9.47009034E-07  9.47009034E-07
      6.18058993E-07  6.79659831E-07  7.84564268E-07  1.02914697E-06  1.32917853E-06  1.47382873E-06  1.59869066E-06  1.53645084E-06  1.38497768E-06  1.31559010E-06  1.48187853E-06  1.61278603E-06  1.89768025E-06  2.29666837E-06  2.79165852E-06  2.85634738E-06  2.54695410E-06  9.47009034E-07  9.47009034E-07  9.47009034E-07
      9.47009034E-07  9.47009034E-07  9.47009034E-07  9.47009034E-07  9.47009034E-07  9.47009034E-07  9.47009034E-07  9.47009034E-07  1.51980201E-06  2.17701319E-06  3.04026937E-06  3.33421106E-06  3.27718548E-06  4.00171619E-06  5.71808736E-06  6.39763977E-06  6.35238821E-06  6.39747119E-06  5.34929169E-06  3.44339865E-06
      1.91180291E-06  1.18031423E-06  8.04574410E-07  5.88097366E-07  4.68223868E-07  4.36987081E-07  9.47009034E-07  9.47009034E-07  9.47009034E-07  9.47009034E-07  9.47009034E-07  9.47009034E-07  9.47009034E-07  3.10774907E-07  3.15935555E-07  3.67423114E-07  3.49736715E-07  3.54601682E-07  3.36534070E-07  3.21038404E-07
      3.47133739E-07  3.79733767E-07  4.29811363E-07  5.06978373E-07  6.12403761E-07  7.18482551E-07  7.42942137E-07  7.78397614E-07  8.03597975E-07  8.17520166E-07  1.00759030E-06  1.10996688E-06  9.89211885E-07  9.26179808E-07  1.10353502E-06  9.47009034E-07  9.47009034E-07  9.47009034E-07  9.47009034E-07  9.47009034E-07
      9.47009034E-07  9.47009034E-07  9.47009034E-07  9.47009034E-07  9.47009034E-07  9.47009034E-07  9.47009034E-07  9.47009034E-07  9.47009034E-07  9.47009034E-07  9.47009034E-07  9.47009034E-07  2.72894101E-06  2.92608955E-06  3.45778776E-06  3.83066668E-06  3.54419130E-06  3.24680712E-06  3.16270822E-06  2.94733818E-06
      2.35264436E-06  2.03302250E-06  1.68393203E-06  1.33600548E-06  1.19928596E-06  1.08648590E-06  1.04062765E-06  9.47009034E-07  9.47009034E-07  9.47009034E-07  9.75626441E-07  1.20980671E-06  1.32118336E-06  1.70347264E-06  2.13772464E-06  2.32645134E-06  2.71073083E-06  3.00711069E-06  2.30030494E-06  1.83423272E-06
      1.55955878E-06  1.36156372E-06  1.14570669E-06  1.00820226E-06  8.53574657E-07  8.28680150E-07  8.89733121E-07  7.68998991E-07  8.68461847E-07  9.19817621E-07  1.05003207E-06  1.10192835E-06  9.47009034E-07  9.47009034E-07  9.47009034E-07  9.47009034E-07  9.47009034E-07  9.47009034E-07  9.47009034E-07  9.47009034E-07
      5.56175176E-07  6.02284720E-07  6.33560150E-07  7.49939495E-07  9.09965456E-07  1.05491204E-06  1.17726754E-06  1.07552262E-06  9.43653397E-07  8.55858827E-07  8.96195155E-07  1.17709305E-06  1.54819455E-06  2.03351364E-06  2.78080156E-06  3.15039093E-06  3.17872223E-06  2.42805586E-06  9.47009034E-07  9.47009034E-07
      9.47009034E-07  9.47009034E-07  9.47009034E-07  9.47009034E-07  9.47009034E-07  9.47009034E-07  9.47009034E-07  1.70224240E-06  2.15363846E-06  2.90503876E-06  3.70659767E-06  4.20021446E-06  4.94771417E-06  5.70361557E-06  7.85910958E-06  7.65399624E-06  7.38843076E-06  7.05077021E-06  5.40746358E-06  3.84298453E-06
      2.32091501E-06  1.41116287E-06  9.67933600E-07  7.26458522E-07  5.65789069E-07  4.33872856E-07  9.47009034E-07  9.47009034E-07  9.47009034E-07  9.47009034E-07  9.47009034E-07  9.47009034E-07  9.47009034E-07  2.84671685E-07  3.06661355E-07  3.22569014E-07  2.73666130E-07  2.60464534E-07  2.56850753E-07  2.60890419E-07
      2.96503080E-07  3.70818926E-07  4.61381942E-07  5.80140407E-07  7.33179871E-07  8.80197393E-07  9.09388157E-07  9.09864552E-07  9.38794246E-07  1.05448936E-06  1.34403278E-06  1.80084163E-06  1.65236608E-06  1.38923442E-06  1.38074460E-06  9.47009034E-07  9.47009034E-07  9.47009034E-07  9.47009034E-07  9.47009034E-07
      9.47009034E-07  9.47009034E-07  9.47009034E-07  9.47009034E-07  9.47009034E-07  9.47009034E-07  9.47009034E-07  9.47009034E-07  9.47009034E-07  9.47009034E-07  9.47009034E-07  2.12777958E-06  2.51042845E-06  2.83369744E-06  3.06857714E-06  3.21879126E-06  3.30008498E-06  3.48825146E-06  3.49981790E-06  3.31678001E-06
      2.51411639E-06  2.10242738E-06  1.64579353E-06  1.26835124E-06  1.09680079E-06  8.80358800E-07  7.88767149E-07  9.47009034E-07  9.47009034E-07  9.47009034E-07  1.17383813E-06  1.48804479E-06  1.77350811E-06  2.25650093E-06  2.65893311E-06  2.74374963E-06  3.06759351E-06  3.07534652E-06  2.36290092E-06  1.82094297E-06
      1.40316439E-06  1.26926929E-06  1.11730320E-06  8.78038165E-07  7.92888941E-07  9.10989114E-07  8.65527069E-07  9.10966109E-07  1.06218065E-06  1.18545861E-06  1.22564338E-06  1.14754727E-06  1.23816274E-06  1.25296659E-06  9.47009034E-07  9.47009034E-07  9.47009034E-07  9.47009034E-07  9.47009034E-07  1.09328403E-06
      5.24281960E-07  5.27821374E-07  5.61410399E-07  5.98706606E-07  6.79881500E-07  8.25840816E-07  8.05605986E-07  6.43159390E-07  5.71761651E-07  5.12674514E-07  5.30661711E-07  7.74235535E-07  1.11160236E-06  1.63484528E-06  2.69469765E-06  3.29561679E-06  3.22461011E-06  2.89196852E-06  2.71174593E-06  2.59041116E-06
      2.45317778E-06  1.99523033E-06  1.94579601E-06  2.13425371E-06  2.28586340E-06  2.54307000E-06  2.58977414E-06  2.68226158E-06  3.00714701E-06  3.56750302E-06  4.09964938E-06  5.27001403E-06  6.52877548E-06  7.41653603E-06  9.54913991E-06  1.01361986E-05  8.69338588E-06  8.03155174E-06  5.92142357E-06  4.19188485E-06
      2.94959133E-06  1.94660160E-06  1.40694553E-06  1.07311514E-06  7.00611246E-07  4.84357336E-07  9.47009034E-07  9.47009034E-07  9.47009034E-07  9.47009034E-07  9.47009034E-07  9.47009034E-07  2.60240709E-07  2.71727460E-07  2.98791024E-07  2.82583992E-07  2.39876244E-07  2.13120254E-07  1.97026080E-07  2.08842543E-07
      2.99505407E-07  4.18676078E-07  5.09756918E-07  6.07659668E-07  7.46800686E-07  9.11881754E-07  9.25397121E-07  1.03041783E-06  1.14193156E-06  1.28604671E-06  1.62694671E-06  2.04556792E-06  2.21281179E-06  1.97870910E-06  1.68647617E-06  1.78291085E-06  2.21020154E-06  9.47009034E-07  9.47009034E-07  9.47009034E-07
      9.47009034E-07  9.47009034E-07  9.47009034E-07  9.47009034E-07  9.47009034E-07  9.47009034E-07  9.47009034E-07  9.47009034E-07  9.47009034E-07  9.47009034E-07  1.08545928E-06  1.67320398E-06  1.82695282E-06  1.98461198E-06  2.52169680E-06  2.75066000E-06  3.06508530E-06  3.53159013E-06  3.82674458E-06  3.88912886E-06
      3.27831192E-06  2.65422538E-06  2.03282385E-06  1.50597190E-06  1.03580580E-06  6.26791982E-07  9.47009034E-07  9.47009034E-07  9.47009034E-07  9.47009034E-07  1.34086673E-06  1.82347187E-06  2.13848290E-06  2.88049373E-06  3.25646082E-06  3.12536814E-06  3.07229222E-06  3.15434358E-06  2.31910390E-06  1.81886686E-06
      1.43516343E-06  1.28651701E-06  9.99248181E-07  8.36288508E-07  8.62384403E-07  9.62020524E-07  8.66903264E-07  9.34049336E-07  1.16735142E-06  1.25430724E-06  1.12741294E-06  1.19226977E-06  1.42450388E-06  1.48228372E-06  1.67804808E-06  1.58061925E-06  1.41161847E-06  1.22518055E-06  1.19660802E-06  1.13430400E-06
      4.88889705E-07  4.74997206E-07  4.94916482E-07  5.08630945E-07  5.85383930E-07  6.93576698E-07  6.01399913E-07  4.75670453E-07  4.04595764E-07  3.41972621E-07  3.85104788E-07  5.49931709E-07  8.58278201E-07  1.32974781E-06  2.54278800E-06  2.79117427E-06  3.16100715E-06  3.29729980E-06  3.48943511E-06  3.30459551E-06
      3.37608070E-06  3.36134508E-06  3.41297814E-06  3.89472672E-06  4.15929293E-06  4.33397694E-06  3.73388723E-06  3.77765962E-06  3.77548685E-06  3.69522815E-06  4.41781378E-06  6.21768466E-06  8.74230737E-06  9.43877219E-06  1.04881302E-05  1.12956390E-05  1.19705743E-05  1.09141903E-05  7.89643194E-06  5.88068310E-06
      4.27092332E-06  3.29039589E-06  2.26502487E-06  1.45263048E-06  8.44045487E-07  6.42446562E-07  6.17174051E-07  9.47009034E-07  9.47009034E-07  9.47009034E-07  9.47009034E-07  2.07684132E-07  2.34128555E-07  2.62873830E-07  3.03128651E-07  2.72543764E-07  2.32418419E-07  2.11287558E-07  1.91943988E-07  2.20372930E-07
      3.25317663E-07  4.95614153E-07  5.64271001E-07  6.82404799E-07  8.80708778E-07  9.42735866E-07  1.04656990E-06  1.21467413E-06  1.32193064E-06  1.49470764E-06  1.77753567E-06  1.86114887E-06  9.47009034E-07  9.47009034E-07  9.47009034E-07  9.47009034E-07  9.47009034E-07  2.47590773E-06  9.47009034E-07  9.47009034E-07
      9.47009034E-07  9.47009034E-07  9.47009034E-07  9.47009034E-07  9.47009034E-07  9.47009034E-07  9.47009034E-07  9.47009034E-07  9.47009034E-07  4.66939892E-07  6.98492886E-07  9.20160048E-07  1.18336881E-06  1.49476016E-06  1.93660774E-06  2.86020745E-06  3.44002791E-06  4.17007066E-06  4.37223683E-06  4.65352263E-06
      4.27230689E-06  3.20568179E-06  2.28690269E-06  1.47009058E-06  9.13979692E-07  9.47009034E-07  9.47009034E-07  9.47009034E-07  9.47009034E-07  9.47009034E-07  1.51860604E-06  1.86645102E-06  2.24351400E-06  3.31794555E-06  4.37348034E-06  3.97082083E-06  3.62601541E-06  3.41182791E-06  2.47221069E-06  1.84209573E-06
      1.46272781E-06  1.27215593E-06  9.50333823E-07  8.74319050E-07  9.37960734E-07  9.68690574E-07  8.84106519E-07  8.01126883E-07  9.89834424E-07  1.05998109E-06  1.06800908E-06  1.36878543E-06  1.53805766E-06  1.60675016E-06  1.60944450E-06  1.63427637E-06  1.55974372E-06  1.43828997E-06  1.40071234E-06  1.27864648E-06