# File generated by Flopy version 3.8.2 on 01/13/2025 at 15:46:20.
BEGIN options
  XORIGIN       0.00000000
  YORIGIN       0.00000000
END options

BEGIN dimensions
  NLAY  35
  NROW  35
  NCOL  35
END dimensions

BEGIN griddata
  delr
    CONSTANT       6.00000000
  delc
    CONSTANT       3.00000000
  top
    INTERNAL  FACTOR  1.0
        -4.50002670      -4.50002670      -4.50002670      -4.50002670      -4.50002670      -4.50002670      -4.50002670      -4.50002670      -4.50002670      -4.50002670      -4.50002670      -4.50002670      -4.50002670      -4.50002670      -4.50002670      -4.50002670      -4.50002670      -4.50002670      -4.50002670      -4.50002670      -4.50002670      -4.50002670      -4.50002670      -4.50002670      -4.50002670      -4.50002670      -4.50002670      -4.50002670      -4.50002670      -4.50002670      -4.50002670      -4.50002670      -4.50002670      -4.50002670      -4.50002670
        -4.50002670      -4.50002670      -4.50002670      -4.50002670      -4.50002670      -4.50002670      -4.50002670      -4.50002670      -4.50002670      -4.50002670      -4.50002670      -4.50002670      -4.50002670      -4.50002670      -4.50002670      -4.50002670      -4.50002670      -4.50002670      -4.50002670      -4.50002670      -4.50002670      -4.50002670      -4.50002670      -4.50002670      -4.50002670      -4.50002670      -4.50002670      -4.50002670      -4.50002670      -4.50002670      -4.50002670      -4.50002670      -4.50002670      -4.50002670      -4.50002670
        -4.50002670      -4.50002670      -4.50002670      -4.50002670      -4.50002670      -4.50002670      -4.50002670      -4.50002670      -4.50002670      -4.50002670      -4.50002670      -4.50002670      -4.50002670      -4.50002670      -4.50002670      -4.50002670      -4.50002670      -4.50002670      -4.50002670      -4.50002670      -4.50002670      -4.50002670      -4.50002670      -4.50002670      -4.50002670      -4.50002670      -4.50002670      -4.50002670      -4.50002670      -4.50002670      -4.50002670      -4.50002670      -4.50002670      -4.50002670      -4.50002670
        -4.50002670      -4.50002670      -4.50002670      -4.50002670      -4.50002670      -4.50002670      -4.50002670      -4.50002670      -4.50002670      -4.50002670      -4.50002670      -4.50002670      -4.50002670      -4.50002670      -4.50002670      -4.50002670      -4.50002670      -4.50002670      -4.50002670      -4.50002670      -4.50002670      -4.50002670      -4.50002670      -4.50002670      -4.50002670      -4.50002670      -4.50002670      -4.50002670      -4.50002670      -4.50002670      -4.50002670      -4.50002670      -4.50002670      -4.50002670      -4.50002670
        -4.50002670      -4.50002670      -4.50002670      -4.50002670      -4.50002670      -4.50002670      -4.50002670      -4.50002670      -4.50002670      -4.50002670      -4.50002670      -4.50002670      -4.50002670      -4.50002670      -4.50002670      -4.50002670      -4.50002670      -4.50002670      -4.50002670      -4.50002670      -4.50002670      -4.50002670      -4.50002670      -4.50002670      -4.50002670      -4.50002670      -4.50002670      -4.50002670      -4.50002670      -4.50002670      -4.50002670      -4.50002670      -4.50002670      -4.50002670      -4.50002670
        -4.50002670      -4.50002670      -4.50002670      -4.50002670      -4.50002670      -4.50002670      -4.50002670      -4.50002670      -4.50002670      -4.50002670      -4.50002670      -4.50002670      -4.50002670      -4.50002670      -4.50002670      -4.50002670      -4.50002670      -4.50002670      -4.50002670      -4.50002670      -4.50002670      -4.50002670      -4.50002670      -4.50002670      -4.50002670      -4.50002670      -4.50002670      -4.50002670      -4.50002670      -4.50002670      -4.50002670      -4.50002670      -4.50002670      -4.50002670      -4.50002670
        -4.50002670      -4.50002670      -4.50002670      -4.50002670      -4.50002670      -4.50002670      -4.50002670      -4.50002670      -4.50002670      -4.50002670      -4.50002670      -4.50002670      -4.50002670      -4.50002670      -4.50002670      -4.50002670      -4.50002670      -4.50002670      -4.50002670      -4.50002670      -4.50002670      -4.50002670      -4.50002670      -4.50002670      -4.50002670      -4.50002670      -4.50002670      -4.50002670      -4.50002670      -4.50002670      -4.50002670      -4.50002670      -4.50002670      -4.50002670      -4.50002670
        -4.50002670      -4.50002670      -4.50002670      -4.50002670      -4.50002670      -4.50002670      -4.50002670      -4.50002670      -4.50002670      -4.50002670      -4.50002670      -4.50002670      -4.50002670      -4.50002670      -4.50002670      -4.50002670      -4.50002670      -4.50002670      -4.50002670      -4.50002670      -4.50002670      -4.50002670      -4.50002670      -4.50002670      -4.50002670      -4.50002670      -4.50002670      -4.50002670      -4.50002670      -4.50002670      -4.50002670      -4.50002670      -4.50002670      -4.50002670      -4.50002670
        -4.50002670      -4.50002670      -4.50002670      -4.50002670      -4.50002670      -4.50002670      -4.50002670      -4.50002670      -4.50002670      -4.50002670      -4.50002670      -4.50002670      -4.50002670      -4.50002670      -4.50002670      -4.50002670      -4.50002670      -4.50002670      -4.50002670      -4.50002670      -4.50002670      -4.50002670      -4.50002670      -4.50002670      -4.50002670      -4.50002670      -4.50002670      -4.50002670      -4.50002670      -4.50002670      -4.50002670      -4.50002670      -4.50002670      -4.50002670      -4.50002670
        -4.50002670      -4.50002670      -4.50002670      -4.50002670      -4.50002670      -4.50002670      -4.50002670      -4.50002670      -4.50002670      -4.50002670      -4.50002670      -4.50002670      -4.50002670      -4.50002670      -4.50002670      -4.50002670      -4.50002670      -4.50002670      -4.50002670      -4.50002670      -4.50002670      -4.50002670      -4.50002670      -4.50002670      -4.50002670      -4.50002670      -4.50002670      -4.50002670      -4.50002670      -4.50002670      -4.50002670      -4.50002670      -4.50002670      -4.50002670      -4.50002670
        -4.50002670      -4.50002670      -4.50002670      -4.50002670      -4.50002670      -4.50002670      -4.50002670      -4.50002670      -4.50002670      -4.50002670      -4.50002670      -4.50002670      -4.50002670      -4.50002670      -4.50002670      -4.50002670      -4.50002670      -4.50002670      -4.50002670      -4.50002670      -4.50002670      -4.50002670      -4.50002670      -4.50002670      -4.50002670      -4.50002670      -4.50002670      -4.50002670      -4.50002670      -4.50002670      -4.50002670      -4.50002670      -4.50002670      -4.50002670      -4.50002670
        -4.50002670      -4.50002670      -4.50002670      -4.50002670      -4.50002670      -4.50002670      -4.50002670      -4.50002670      -4.50002670      -4.50002670      -4.50002670      -4.50002670      -4.50002670      -4.50002670      -4.50002670      -4.50002670      -4.50002670      -4.50002670      -4.50002670      -4.50002670      -4.50002670      -4.50002670      -4.50002670      -4.50002670      -4.50002670      -4.50002670      -4.50002670      -4.50002670      -4.50002670      -4.50002670      -4.50002670      -4.50002670      -4.50002670      -4.50002670      -4.50002670
        -4.50002670      -4.50002670      -4.50002670      -4.50002670      -4.50002670      -4.50002670      -4.50002670      -4.50002670      -4.50002670      -4.50002670      -4.50002670      -4.50002670      -4.50002670      -4.50002670      -4.50002670      -4.50002670      -4.50002670      -4.50002670      -4.50002670      -4.50002670      -4.50002670      -4.50002670      -4.50002670      -4.50002670      -4.50002670      -4.50002670      -4.50002670      -4.50002670      -4.50002670      -4.50002670      -4.50002670      -4.50002670      -4.50002670      -4.50002670      -4.50002670
        -4.50002670      -4.50002670      -4.50002670      -4.50002670      -4.50002670      -4.50002670      -4.50002670      -4.50002670      -4.50002670      -4.50002670      -4.50002670      -4.50002670      -4.50002670      -4.50002670      -4.50002670      -4.50002670      -4.50002670      -4.50002670      -4.50002670      -4.50002670      -4.50002670      -4.50002670      -4.50002670      -4.50002670      -4.50002670      -4.50002670      -4.50002670      -4.50002670      -4.50002670      -4.50002670      -4.50002670      -4.50002670      -4.50002670      -4.50002670      -4.50002670
        -4.50002670      -4.50002670      -4.50002670      -4.50002670      -4.50002670      -4.50002670      -4.50002670      -4.50002670      -4.50002670      -4.50002670      -4.50002670      -4.50002670      -4.50002670      -4.50002670      -4.50002670      -4.50002670      -4.50002670      -4.50002670      -4.50002670      -4.50002670      -4.50002670      -4.50002670      -4.50002670      -4.50002670      -4.50002670      -4.50002670      -4.50002670      -4.50002670      -4.50002670      -4.50002670      -4.50002670      -4.50002670      -4.50002670      -4.50002670      -4.50002670
        -4.50002670      -4.50002670      -4.50002670      -4.50002670      -4.50002670      -4.50002670      -4.50002670      -4.50002670      -4.50002670      -4.50002670      -4.50002670      -4.50002670      -4.50002670      -4.50002670      -4.50002670      -4.50002670      -4.50002670      -4.50002670      -4.50002670      -4.50002670      -4.50002670      -4.50002670      -4.50002670      -4.50002670      -4.50002670      -4.50002670      -4.50002670      -4.50002670      -4.50002670      -4.50002670      -4.50002670      -4.50002670      -4.50002670      -4.50002670      -4.50002670
        -4.50002670      -4.50002670      -4.50002670      -4.50002670      -4.50002670      -4.50002670      -4.50002670      -4.50002670      -4.50002670      -4.50002670      -4.50002670      -4.50002670      -4.50002670      -4.50002670      -4.50002670      -4.50002670      -4.50002670      -4.50002670      -4.50002670      -4.50002670      -4.50002670      -4.50002670      -4.50002670      -4.50002670      -4.50002670      -4.50002670      -4.50002670      -4.50002670      -4.50002670      -4.50002670      -4.50002670      -4.50002670      -4.50002670      -4.50002670      -4.50002670
        -4.50002670      -4.50002670      -4.50002670      -4.50002670      -4.50002670      -4.50002670      -4.50002670      -4.50002670      -4.50002670      -4.50002670      -4.50002670      -4.50002670      -4.50002670      -4.50002670      -4.50002670      -4.50002670      -4.50002670      -4.50002670      -4.50002670      -4.50002670      -4.50002670      -4.50002670      -4.50002670      -4.50002670      -4.50002670      -4.50002670      -4.50002670      -4.50002670      -4.50002670      -4.50002670      -4.50002670      -4.50002670      -4.50002670      -4.50002670      -4.50002670
        -4.50002670      -4.50002670      -4.50002670      -4.50002670      -4.50002670      -4.50002670      -4.50002670      -4.50002670      -4.50002670      -4.50002670      -4.50002670      -4.50002670      -4.50002670      -4.50002670      -4.50002670      -4.50002670      -4.50002670      -4.50002670      -4.50002670      -4.50002670      -4.50002670      -4.50002670      -4.50002670      -4.50002670      -4.50002670      -4.50002670      -4.50002670      -4.50002670      -4.50002670      -4.50002670      -4.50002670      -4.50002670      -4.50002670      -4.50002670      -4.50002670
        -4.50002670      -4.50002670      -4.50002670      -4.50002670      -4.50002670      -4.50002670      -4.50002670      -4.50002670      -4.50002670      -4.50002670      -4.50002670      -4.50002670      -4.50002670      -4.50002670      -4.50002670      -4.50002670      -4.50002670      -4.50002670      -4.50002670      -4.50002670      -4.50002670      -4.50002670      -4.50002670      -4.50002670      -4.50002670      -4.50002670      -4.50002670      -4.50002670      -4.50002670      -4.50002670      -4.50002670      -4.50002670      -4.50002670      -4.50002670      -4.50002670
        -4.50002670      -4.50002670      -4.50002670      -4.50002670      -4.50002670      -4.50002670      -4.50002670      -4.50002670      -4.50002670      -4.50002670      -4.50002670      -4.50002670      -4.50002670      -4.50002670      -4.50002670      -4.50002670      -4.50002670      -4.50002670      -4.50002670      -4.50002670      -4.50002670      -4.50002670      -4.50002670      -4.50002670      -4.50002670      -4.50002670      -4.50002670      -4.50002670      -4.50002670      -4.50002670      -4.50002670      -4.50002670      -4.50002670      -4.50002670      -4.50002670
        -4.50002670      -4.50002670      -4.50002670      -4.50002670      -4.50002670      -4.50002670      -4.50002670      -4.50002670      -4.50002670      -4.50002670      -4.50002670      -4.50002670      -4.50002670      -4.50002670      -4.50002670      -4.50002670      -4.50002670      -4.50002670      -4.50002670      -4.50002670      -4.50002670      -4.50002670      -4.50002670      -4.50002670      -4.50002670      -4.50002670      -4.50002670      -4.50002670      -4.50002670      -4.50002670      -4.50002670      -4.50002670      -4.50002670      -4.50002670      -4.50002670
        -4.50002670      -4.50002670      -4.50002670      -4.50002670      -4.50002670      -4.50002670      -4.50002670      -4.50002670      -4.50002670      -4.50002670      -4.50002670      -4.50002670      -4.50002670      -4.50002670      -4.50002670      -4.50002670      -4.50002670      -4.50002670      -4.50002670      -4.50002670      -4.50002670      -4.50002670      -4.50002670      -4.50002670      -4.50002670      -4.50002670      -4.50002670      -4.50002670      -4.50002670      -4.50002670      -4.50002670      -4.50002670      -4.50002670      -4.50002670      -4.50002670
        -4.50002670      -4.50002670      -4.50002670      -4.50002670      -4.50002670      -4.50002670      -4.50002670      -4.50002670      -4.50002670      -4.50002670      -4.50002670      -4.50002670      -4.50002670      -4.50002670      -4.50002670      -4.50002670      -4.50002670      -4.50002670      -4.50002670      -4.50002670      -4.50002670      -4.50002670      -4.50002670      -4.50002670      -4.50002670      -4.50002670      -4.50002670      -4.50002670      -4.50002670      -4.50002670      -4.50002670      -4.50002670      -4.50002670      -4.50002670      -4.50002670
        -4.50002670      -4.50002670      -4.50002670      -4.50002670      -4.50002670      -4.50002670      -4.50002670      -4.50002670      -4.50002670      -4.50002670      -4.50002670      -4.50002670      -4.50002670      -4.50002670      -4.50002670      -4.50002670      -4.50002670      -4.50002670      -4.50002670      -4.50002670      -4.50002670      -4.50002670      -4.50002670      -4.50002670      -4.50002670      -4.50002670      -4.50002670      -4.50002670      -4.50002670      -4.50002670      -4.50002670      -4.50002670      -4.50002670      -4.50002670      -4.50002670
        -4.50002670      -4.50002670      -4.50002670      -4.50002670      -4.50002670      -4.50002670      -4.50002670      -4.50002670      -4.50002670      -4.50002670      -4.50002670      -4.50002670      -4.50002670      -4.50002670      -4.50002670      -4.50002670      -4.50002670      -4.50002670      -4.50002670      -4.50002670      -4.50002670      -4.50002670      -4.50002670      -4.50002670      -4.50002670      -4.50002670      -4.50002670      -4.50002670      -4.50002670      -4.50002670      -4.50002670      -4.50002670      -4.50002670      -4.50002670      -4.50002670
        -4.50002670      -4.50002670      -4.50002670      -4.50002670      -4.50002670      -4.50002670      -4.50002670      -4.50002670      -4.50002670      -4.50002670      -4.50002670      -4.50002670      -4.50002670      -4.50002670      -4.50002670      -4.50002670      -4.50002670      -4.50002670      -4.50002670      -4.50002670      -4.50002670      -4.50002670      -4.50002670      -4.50002670      -4.50002670      -4.50002670      -4.50002670      -4.50002670      -4.50002670      -4.50002670      -4.50002670      -4.50002670      -4.50002670      -4.50002670      -4.50002670
        -4.50002670      -4.50002670      -4.50002670      -4.50002670      -4.50002670      -4.50002670      -4.50002670      -4.50002670      -4.50002670      -4.50002670      -4.50002670      -4.50002670      -4.50002670      -4.50002670      -4.50002670      -4.50002670      -4.50002670      -4.50002670      -4.50002670      -4.50002670      -4.50002670      -4.50002670      -4.50002670      -4.50002670      -4.50002670      -4.50002670      -4.50002670      -4.50002670      -4.50002670      -4.50002670      -4.50002670      -4.50002670      -4.50002670      -4.50002670      -4.50002670
        -4.50002670      -4.50002670      -4.50002670      -4.50002670      -4.50002670      -4.50002670      -4.50002670      -4.50002670      -4.50002670      -4.50002670      -4.50002670      -4.50002670      -4.50002670      -4.50002670      -4.50002670      -4.50002670      -4.50002670      -4.50002670      -4.50002670      -4.50002670      -4.50002670      -4.50002670      -4.50002670      -4.50002670      -4.50002670      -4.50002670      -4.50002670      -4.50002670      -4.50002670      -4.50002670      -4.50002670      -4.50002670      -4.50002670      -4.50002670      -4.50002670
        -4.50002670      -4.50002670      -4.50002670      -4.50002670      -4.50002670      -4.50002670      -4.50002670      -4.50002670      -4.50002670      -4.50002670      -4.50002670      -4.50002670      -4.50002670      -4.50002670      -4.50002670      -4.50002670      -4.50002670      -4.50002670      -4.50002670      -4.50002670      -4.50002670      -4.50002670      -4.50002670      -4.50002670      -4.50002670      -4.50002670      -4.50002670      -4.50002670      -4.50002670      -4.50002670      -4.50002670      -4.50002670      -4.50002670      -4.50002670      -4.50002670
        -4.50002670      -4.50002670      -4.50002670      -4.50002670      -4.50002670      -4.50002670      -4.50002670      -4.50002670      -4.50002670      -4.50002670      -4.50002670      -4.50002670      -4.50002670      -4.50002670      -4.50002670      -4.50002670      -4.50002670      -4.50002670      -4.50002670      -4.50002670      -4.50002670      -4.50002670      -4.50002670      -4.50002670      -4.50002670      -4.50002670      -4.50002670      -4.50002670      -4.50002670      -4.50002670      -4.50002670      -4.50002670      -4.50002670      -4.50002670      -4.50002670
        -4.50002670      -4.50002670      -4.50002670      -4.50002670      -4.50002670      -4.50002670      -4.50002670      -4.50002670      -4.50002670      -4.50002670      -4.50002670      -4.50002670      -4.50002670      -4.50002670      -4.50002670      -4.50002670      -4.50002670      -4.50002670      -4.50002670      -4.50002670      -4.50002670      -4.50002670      -4.50002670      -4.50002670      -4.50002670      -4.50002670      -4.50002670      -4.50002670      -4.50002670      -4.50002670      -4.50002670      -4.50002670      -4.50002670      -4.50002670      -4.50002670
        -4.50002670      -4.50002670      -4.50002670      -4.50002670      -4.50002670      -4.50002670      -4.50002670      -4.50002670      -4.50002670      -4.50002670      -4.50002670      -4.50002670      -4.50002670      -4.50002670      -4.50002670      -4.50002670      -4.50002670      -4.50002670      -4.50002670      -4.50002670      -4.50002670      -4.50002670      -4.50002670      -4.50002670      -4.50002670      -4.50002670      -4.50002670      -4.50002670      -4.50002670      -4.50002670      -4.50002670      -4.50002670      -4.50002670      -4.50002670      -4.50002670
        -4.50002670      -4.50002670      -4.50002670      -4.50002670      -4.50002670      -4.50002670      -4.50002670      -4.50002670      -4.50002670      -4.50002670      -4.50002670      -4.50002670      -4.50002670      -4.50002670      -4.50002670      -4.50002670      -4.50002670      -4.50002670      -4.50002670      -4.50002670      -4.50002670      -4.50002670      -4.50002670      -4.50002670      -4.50002670      -4.50002670      -4.50002670      -4.50002670      -4.50002670      -4.50002670      -4.50002670      -4.50002670      -4.50002670      -4.50002670      -4.50002670
        -4.50002670      -4.50002670      -4.50002670      -4.50002670      -4.50002670      -4.50002670      -4.50002670      -4.50002670      -4.50002670      -4.50002670      -4.50002670      -4.50002670      -4.50002670      -4.50002670      -4.50002670      -4.50002670      -4.50002670      -4.50002670      -4.50002670      -4.50002670      -4.50002670      -4.50002670      -4.50002670      -4.50002670      -4.50002670      -4.50002670      -4.50002670      -4.50002670      -4.50002670      -4.50002670      -4.50002670      -4.50002670      -4.50002670      -4.50002670      -4.50002670
  botm  LAYERED
    INTERNAL  FACTOR  1.0
          -4.80002594      -4.80002594      -4.80002594      -4.80002594      -4.80002594      -4.80002594      -4.80002594      -4.80002594      -4.80002594      -4.80002594      -4.80002594      -4.80002594      -4.80002594      -4.80002594      -4.80002594      -4.80002594      -4.80002594      -4.80002594      -4.80002594      -4.80002594      -4.80002594      -4.80002594      -4.80002594      -4.80002594      -4.80002594      -4.80002594      -4.80002594      -4.80002594      -4.80002594      -4.80002594      -4.80002594      -4.80002594      -4.80002594      -4.80002594      -4.80002594
          -4.80002594      -4.80002594      -4.80002594      -4.80002594      -4.80002594      -4.80002594      -4.80002594      -4.80002594      -4.80002594      -4.80002594      -4.80002594      -4.80002594      -4.80002594      -4.80002594      -4.80002594      -4.80002594      -4.80002594      -4.80002594      -4.80002594      -4.80002594      -4.80002594      -4.80002594      -4.80002594      -4.80002594      -4.80002594      -4.80002594      -4.80002594      -4.80002594      -4.80002594      -4.80002594      -4.80002594      -4.80002594      -4.80002594      -4.80002594      -4.80002594
          -4.80002594      -4.80002594      -4.80002594      -4.80002594      -4.80002594      -4.80002594      -4.80002594      -4.80002594      -4.80002594      -4.80002594      -4.80002594      -4.80002594      -4.80002594      -4.80002594      -4.80002594      -4.80002594      -4.80002594      -4.80002594      -4.80002594      -4.80002594      -4.80002594      -4.80002594      -4.80002594      -4.80002594      -4.80002594      -4.80002594      -4.80002594      -4.80002594      -4.80002594      -4.80002594      -4.80002594      -4.80002594      -4.80002594      -4.80002594      -4.80002594
          -4.80002594      -4.80002594      -4.80002594      -4.80002594      -4.80002594      -4.80002594      -4.80002594      -4.80002594      -4.80002594      -4.80002594      -4.80002594      -4.80002594      -4.80002594      -4.80002594      -4.80002594      -4.80002594      -4.80002594      -4.80002594      -4.80002594      -4.80002594      -4.80002594      -4.80002594      -4.80002594      -4.80002594      -4.80002594      -4.80002594      -4.80002594      -4.80002594      -4.80002594      -4.80002594      -4.80002594      -4.80002594      -4.80002594      -4.80002594      -4.80002594
          -4.80002594      -4.80002594      -4.80002594      -4.80002594      -4.80002594      -4.80002594      -4.80002594      -4.80002594      -4.80002594      -4.80002594      -4.80002594      -4.80002594      -4.80002594      -4.80002594      -4.80002594      -4.80002594      -4.80002594      -4.80002594      -4.80002594      -4.80002594      -4.80002594      -4.80002594      -4.80002594      -4.80002594      -4.80002594      -4.80002594      -4.80002594      -4.80002594      -4.80002594      -4.80002594      -4.80002594      -4.80002594      -4.80002594      -4.80002594      -4.80002594
          -4.80002594      -4.80002594      -4.80002594      -4.80002594      -4.80002594      -4.80002594      -4.80002594      -4.80002594      -4.80002594      -4.80002594      -4.80002594      -4.80002594      -4.80002594      -4.80002594      -4.80002594      -4.80002594      -4.80002594      -4.80002594      -4.80002594      -4.80002594      -4.80002594      -4.80002594      -4.80002594      -4.80002594      -4.80002594      -4.80002594      -4.80002594      -4.80002594      -4.80002594      -4.80002594      -4.80002594      -4.80002594      -4.80002594      -4.80002594      -4.80002594
          -4.80002594      -4.80002594      -4.80002594      -4.80002594      -4.80002594      -4.80002594      -4.80002594      -4.80002594      -4.80002594      -4.80002594      -4.80002594      -4.80002594      -4.80002594      -4.80002594      -4.80002594      -4.80002594      -4.80002594      -4.80002594      -4.80002594      -4.80002594      -4.80002594      -4.80002594      -4.80002594      -4.80002594      -4.80002594      -4.80002594      -4.80002594      -4.80002594      -4.80002594      -4.80002594      -4.80002594      -4.80002594      -4.80002594      -4.80002594      -4.80002594
          -4.80002594      -4.80002594      -4.80002594      -4.80002594      -4.80002594      -4.80002594      -4.80002594      -4.80002594      -4.80002594      -4.80002594      -4.80002594      -4.80002594      -4.80002594      -4.80002594      -4.80002594      -4.80002594      -4.80002594      -4.80002594      -4.80002594      -4.80002594      -4.80002594      -4.80002594      -4.80002594      -4.80002594      -4.80002594      -4.80002594      -4.80002594      -4.80002594      -4.80002594      -4.80002594      -4.80002594      -4.80002594      -4.80002594      -4.80002594      -4.80002594
          -4.80002594      -4.80002594      -4.80002594      -4.80002594      -4.80002594      -4.80002594      -4.80002594      -4.80002594      -4.80002594      -4.80002594      -4.80002594      -4.80002594      -4.80002594      -4.80002594      -4.80002594      -4.80002594      -4.80002594      -4.80002594      -4.80002594      -4.80002594      -4.80002594      -4.80002594      -4.80002594      -4.80002594      -4.80002594      -4.80002594      -4.80002594      -4.80002594      -4.80002594      -4.80002594      -4.80002594      -4.80002594      -4.80002594      -4.80002594      -4.80002594
          -4.80002594      -4.80002594      -4.80002594      -4.80002594      -4.80002594      -4.80002594      -4.80002594      -4.80002594      -4.80002594      -4.80002594      -4.80002594      -4.80002594      -4.80002594      -4.80002594      -4.80002594      -4.80002594      -4.80002594      -4.80002594      -4.80002594      -4.80002594      -4.80002594      -4.80002594      -4.80002594      -4.80002594      -4.80002594      -4.80002594      -4.80002594      -4.80002594      -4.80002594      -4.80002594      -4.80002594      -4.80002594      -4.80002594      -4.80002594      -4.80002594
          -4.80002594      -4.80002594      -4.80002594      -4.80002594      -4.80002594      -4.80002594      -4.80002594      -4.80002594      -4.80002594      -4.80002594      -4.80002594      -4.80002594      -4.80002594      -4.80002594      -4.80002594      -4.80002594      -4.80002594      -4.80002594      -4.80002594      -4.80002594      -4.80002594      -4.80002594      -4.80002594      -4.80002594      -4.80002594      -4.80002594      -4.80002594      -4.80002594      -4.80002594      -4.80002594      -4.80002594      -4.80002594      -4.80002594      -4.80002594      -4.80002594
          -4.80002594      -4.80002594      -4.80002594      -4.80002594      -4.80002594      -4.80002594      -4.80002594      -4.80002594      -4.80002594      -4.80002594      -4.80002594      -4.80002594      -4.80002594      -4.80002594      -4.80002594      -4.80002594      -4.80002594      -4.80002594      -4.80002594      -4.80002594      -4.80002594      -4.80002594      -4.80002594      -4.80002594      -4.80002594      -4.80002594      -4.80002594      -4.80002594      -4.80002594      -4.80002594      -4.80002594      -4.80002594      -4.80002594      -4.80002594      -4.80002594
          -4.80002594      -4.80002594      -4.80002594      -4.80002594      -4.80002594      -4.80002594      -4.80002594      -4.80002594      -4.80002594      -4.80002594      -4.80002594      -4.80002594      -4.80002594      -4.80002594      -4.80002594      -4.80002594      -4.80002594      -4.80002594      -4.80002594      -4.80002594      -4.80002594      -4.80002594      -4.80002594      -4.80002594      -4.80002594      -4.80002594      -4.80002594      -4.80002594      -4.80002594      -4.80002594      -4.80002594      -4.80002594      -4.80002594      -4.80002594      -4.80002594
          -4.80002594      -4.80002594      -4.80002594      -4.80002594      -4.80002594      -4.80002594      -4.80002594      -4.80002594      -4.80002594      -4.80002594      -4.80002594      -4.80002594      -4.80002594      -4.80002594      -4.80002594      -4.80002594      -4.80002594      -4.80002594      -4.80002594      -4.80002594      -4.80002594      -4.80002594      -4.80002594      -4.80002594      -4.80002594      -4.80002594      -4.80002594      -4.80002594      -4.80002594      -4.80002594      -4.80002594      -4.80002594      -4.80002594      -4.80002594      -4.80002594