# File generated by Flopy version 3.8.2 on 01/14/2025 at 15:37:25.
BEGIN options
END options

BEGIN griddata
  strt
    CONSTANT       1.00000000
END griddata

