# # MPBAS package for MODPATH 7 generated by Flopy 3.8.2
0                   # DEFAULTIFACECOUNT
CONSTANT    3.000000E-01                           #porosity layer 1              
CONSTANT    3.000000E-01                           #porosity layer 2              
CONSTANT    3.000000E-01                           #porosity layer 3              
CONSTANT    3.000000E-01                           #porosity layer 4              
