MODPATH_TIMESERIES_FILE         7         2
    2   0.0000000000E+00  0.0000000000E+00  0.0000000000E+00  0.0000000000E+00
END HEADER
       0       1  0.0000000000E+00         1    1         1    211704  0.5000000000E+00  0.5000000000E+00  0.5000000000E+00  0.1507500000E+03  0.2475000000E+02 -0.9225014690E+01        24
       0       1  0.0000000000E+00         2    1         2    215495  0.5000000000E+00  0.5000000000E+00  0.5000000000E+00  0.5175000000E+02  0.8175000000E+02 -0.9375014305E+01        25
       1       1  0.1000000000E-01         1    1         1    211704  0.4999999831E+00  0.5000000176E+00  0.5000013722E+00  0.1507500000E+03  0.2475000003E+02 -0.9225014484E+01        24
       1       1  0.1000000000E-01         2    1         2    215495  0.4999554710E+00  0.5000102280E+00  0.5000235400E+00  0.5174993321E+02  0.8175001534E+02 -0.9375010774E+01        25
       2       1  0.2000000000E-01         1    1         1    211704  0.4999999663E+00  0.5000000351E+00  0.5000027444E+00  0.1507499999E+03  0.2475000005E+02 -0.9225014278E+01        24
       2       1  0.2000000000E-01         2    1         2    215495  0.4999109418E+00  0.5000204559E+00  0.5000470800E+00  0.5174986641E+02  0.8175003068E+02 -0.9375007243E+01        25
       3       1  0.3000000000E-01         1    1         1    211704  0.4999999494E+00  0.5000000527E+00  0.5000041166E+00  0.1507499999E+03  0.2475000008E+02 -0.9225014073E+01        24
       3       1  0.3000000000E-01         2    1         2    215495  0.4998664125E+00  0.5000306838E+00  0.5000706199E+00  0.5174979962E+02  0.8175004603E+02 -0.9375003712E+01        25
       4       1  0.4000000000E-01         1    1         1    211704  0.4999999326E+00  0.5000000703E+00  0.5000054888E+00  0.1507499999E+03  0.2475000011E+02 -0.9225013867E+01        24
       4       1  0.4000000000E-01         2    1         2    215495  0.4998218828E+00  0.5000409117E+00  0.5000941598E+00  0.5174973282E+02  0.8175006137E+02 -0.9375000181E+01        25
       5       1  0.5000000000E-01         1    1         1    211704  0.4999999157E+00  0.5000000878E+00  0.5000068610E+00  0.1507499999E+03  0.2475000013E+02 -0.9225013661E+01        24
       5       1  0.5000000000E-01         2    1         2    215495  0.4997773530E+00  0.5000511396E+00  0.5001176996E+00  0.5174966603E+02  0.8175007671E+02 -0.9374996650E+01        25
       6       1  0.6000000000E-01         1    1         1    211704  0.4999998989E+00  0.5000001054E+00  0.5000082332E+00  0.1507499998E+03  0.2475000016E+02 -0.9225013455E+01        24
       6       1  0.6000000000E-01         2    1         2    215495  0.4997328230E+00  0.5000613674E+00  0.5001412394E+00  0.5174959923E+02  0.8175009205E+02 -0.9374993119E+01        25
       7       1  0.7000000000E-01         1    1         1    211704  0.4999998820E+00  0.5000001230E+00  0.5000096053E+00  0.1507499998E+03  0.2475000018E+02 -0.9225013249E+01        24
       7       1  0.7000000000E-01         2    1         2    215495  0.4996882928E+00  0.5000715952E+00  0.5001647792E+00  0.5174953244E+02  0.8175010739E+02 -0.9374989588E+01        25
       8       1  0.8000000000E-01         1    1         1    211704  0.4999998651E+00  0.5000001405E+00  0.5000109775E+00  0.1507499998E+03  0.2475000021E+02 -0.9225013043E+01        24
       8       1  0.8000000000E-01         2    1         2    215495  0.4996437623E+00  0.5000818230E+00  0.5001883188E+00  0.5174946564E+02  0.8175012273E+02 -0.9374986057E+01        25
       9       1  0.9000000000E-01         1    1         1    211704  0.4999998483E+00  0.5000001581E+00  0.5000123497E+00  0.1507499998E+03  0.2475000024E+02 -0.9225012838E+01        24
       9       1  0.9000000000E-01         2    1         2    215495  0.4995992316E+00  0.5000920507E+00  0.5002118585E+00  0.5174939885E+02  0.8175013808E+02 -0.9374982526E+01        25
      10       1  0.1000000000E+00         1    1         1    211704  0.4999998314E+00  0.5000001756E+00  0.5000137219E+00  0.1507499997E+03  0.2475000026E+02 -0.9225012632E+01        24
      10       1  0.1000000000E+00         2    1         2    215495  0.4995547008E+00  0.5001022784E+00  0.5002353981E+00  0.5174933205E+02  0.8175015342E+02 -0.9374978995E+01        25
      11       1  0.1100000000E+00         1    1         1    211704  0.4999998146E+00  0.5000001932E+00  0.5000150941E+00  0.1507499997E+03  0.2475000029E+02 -0.9225012426E+01        24
      11       1  0.1100000000E+00         2    1         2    215495  0.4995101697E+00  0.5001125061E+00  0.5002589376E+00  0.5174926525E+02  0.8175016876E+02 -0.9374975464E+01        25
      12       1  0.1200000000E+00         1    1         1    211704  0.4999997977E+00  0.5000002108E+00  0.5000164663E+00  0.1507499997E+03  0.2475000032E+02 -0.9225012220E+01        24
      12       1  0.1200000000E+00         2    1         2    215495  0.4994656384E+00  0.5001227338E+00  0.5002824771E+00  0.5174919846E+02  0.8175018410E+02 -0.9374971934E+01        25
      13       1  0.1300000000E+00         1    1         1    211704  0.4999997808E+00  0.5000002283E+00  0.5000178385E+00  0.1507499997E+03  0.2475000034E+02 -0.9225012014E+01        24
      13       1  0.1300000000E+00         2    1         2    215495  0.4994211069E+00  0.5001329614E+00  0.5003060166E+00  0.5174913166E+02  0.8175019944E+02 -0.9374968403E+01        25
      14       1  0.1400000000E+00         1    1         1    211704  0.4999997640E+00  0.5000002459E+00  0.5000192107E+00  0.1507499996E+03  0.2475000037E+02 -0.9225011808E+01        24
      14       1  0.1400000000E+00         2    1         2    215495  0.4993765752E+00  0.5001431890E+00  0.5003295560E+00  0.5174906486E+02  0.8175021478E+02 -0.9374964872E+01        25
      15       1  0.1500000000E+00         1    1         1    211704  0.4999997471E+00  0.5000002635E+00  0.5000205829E+00  0.1507499996E+03  0.2475000040E+02 -0.9225011603E+01        24
      15       1  0.1500000000E+00         2    1         2    215495  0.4993320432E+00  0.5001534166E+00  0.5003530953E+00  0.5174899806E+02  0.8175023012E+02 -0.9374961341E+01        25
      16       1  0.1600000000E+00         1    1         1    211704  0.4999997303E+00  0.5000002810E+00  0.5000219551E+00  0.1507499996E+03  0.2475000042E+02 -0.9225011397E+01        24
      16       1  0.1600000000E+00         2    1         2    215495  0.4992875111E+00  0.5001636442E+00  0.5003766346E+00  0.5174893127E+02  0.8175024547E+02 -0.9374957810E+01        25
      17       1  0.1700000000E+00         1    1         1    211704  0.4999997134E+00  0.5000002986E+00  0.5000233273E+00  0.1507499996E+03  0.2475000045E+02 -0.9225011191E+01        24
      17       1  0.1700000000E+00         2    1         2    215495  0.4992429787E+00  0.5001738717E+00  0.5004001739E+00  0.5174886447E+02  0.8175026081E+02 -0.9374954279E+01        25
      18       1  0.1800000000E+00         1    1         1    211704  0.4999996966E+00  0.5000003162E+00  0.5000246995E+00  0.1507499995E+03  0.2475000047E+02 -0.9225010985E+01        24
      18       1  0.1800000000E+00         2    1         2    215495  0.4991984462E+00  0.5001840992E+00  0.5004237131E+00  0.5174879767E+02  0.8175027615E+02 -0.9374950748E+01        25
      19       1  0.1900000000E+00         1    1         1    211704  0.4999996797E+00  0.5000003337E+00  0.5000260717E+00  0.1507499995E+03  0.2475000050E+02 -0.9225010779E+01        24
      19       1  0.1900000000E+00         2    1         2    215495  0.4991539134E+00  0.5001943267E+00  0.5004472522E+00  0.5174873087E+02  0.8175029149E+02 -0.9374947217E+01        25
      20       1  0.2000000000E+00         1    1         1    211704  0.4999996628E+00  0.5000003513E+00  0.5000274439E+00  0.1507499995E+03  0.2475000053E+02 -0.9225010573E+01        24
      20       1  0.2000000000E+00         2    1         2    215495  0.4991093804E+00  0.5002045541E+00  0.5004707914E+00  0.5174866407E+02  0.8175030683E+02 -0.9374943686E+01        25
      21       1  0.2100000000E+00         1    1         1    211704  0.4999996460E+00  0.5000003689E+00  0.5000288160E+00  0.1507499995E+03  0.2475000055E+02 -0.9225010368E+01        24
      21       1  0.2100000000E+00         2    1         2    215495  0.4990648472E+00  0.5002147815E+00  0.5004943304E+00  0.5174859727E+02  0.8175032217E+02 -0.9374940156E+01        25
      22       1  0.2200000000E+00         1    1         1    211704  0.4999996291E+00  0.5000003864E+00  0.5000301882E+00  0.1507499994E+03  0.2475000058E+02 -0.9225010162E+01        24
      22       1  0.2200000000E+00         2    1         2    215495  0.4990203138E+00  0.5002250089E+00  0.5005178694E+00  0.5174853047E+02  0.8175033751E+02 -0.9374936625E+01        25
      23       1  0.2300000000E+00         1    1         1    211704  0.4999996123E+00  0.5000004040E+00  0.5000315604E+00  0.1507499994E+03  0.2475000061E+02 -0.9225009956E+01        24
      23       1  0.2300000000E+00         2    1         2    215495  0.4989757801E+00  0.5002352363E+00  0.5005414084E+00  0.5174846367E+02  0.8175035285E+02 -0.9374933094E+01        25
      24       1  0.2400000000E+00         1    1         1    211704  0.4999995954E+00  0.5000004215E+00  0.5000329326E+00  0.1507499994E+03  0.2475000063E+02 -0.9225009750E+01        24
      24       1  0.2400000000E+00         2    1         2    215495  0.4989312463E+00  0.5002454636E+00  0.5005649473E+00  0.5174839687E+02  0.8175036820E+02 -0.9374929563E+01        25
      25       1  0.2500000000E+00         1    1         1    211704  0.4999995785E+00  0.5000004391E+00  0.5000343048E+00  0.1507499994E+03  0.2475000066E+02 -0.9225009544E+01        24
      25       1  0.2500000000E+00         2    1         2    215495  0.4988867123E+00  0.5002556909E+00  0.5005884862E+00  0.5174833007E+02  0.8175038354E+02 -0.9374926032E+01        25
      26       1  0.2600000000E+00         1    1         1    211704  0.4999995617E+00  0.5000004567E+00  0.5000356770E+00  0.1507499993E+03  0.2475000069E+02 -0.9225009338E+01        24
      26       1  0.2600000000E+00         2    1         2    215495  0.4988421780E+00  0.5002659182E+00  0.5006120250E+00  0.5174826327E+02  0.8175039888E+02 -0.9374922501E+01        25
      27       1  0.2700000000E+00         1    1         1    211704  0.4999995448E+00  0.5000004742E+00  0.5000370492E+00  0.1507499993E+03  0.2475000071E+02 -0.9225009133E+01        24
      27       1  0.2700000000E+00         2    1         2    215495  0.4987976435E+00  0.5002761454E+00  0.5006355638E+00  0.5174819647E+02  0.8175041422E+02 -0.9374918971E+01        25
      28       1  0.2800000000E+00         1    1         1    211704  0.4999995280E+00  0.5000004918E+00  0.5000384214E+00  0.1507499993E+03  0.2475000074E+02 -0.9225008927E+01        24
      28       1  0.2800000000E+00         2    1         2    215495  0.4987531088E+00  0.5002863726E+00  0.5006591025E+00  0.5174812966E+02  0.8175042956E+02 -0.9374915440E+01        25
      29       1  0.2900000000E+00         1    1         1    211704  0.4999995111E+00  0.5000005094E+00  0.5000397936E+00  0.1507499993E+03  0.2475000076E+02 -0.9225008721E+01        24
      29       1  0.2900000000E+00         2    1         2    215495  0.4987085740E+00  0.5002965998E+00  0.5006826412E+00  0.5174806286E+02  0.8175044490E+02 -0.9374911909E+01        25
      30       1  0.3000000000E+00         1    1         1    211704  0.4999994943E+00  0.5000005269E+00  0.5000411658E+00  0.1507499992E+03  0.2475000079E+02 -0.9225008515E+01        24
      30       1  0.3000000000E+00         2    1         2    215495  0.4986640388E+00  0.5003068270E+00  0.5007061798E+00  0.5174799606E+02  0.8175046024E+02 -0.9374908378E+01        25
      31       1  0.3100000000E+00         1    1         1    211704  0.4999994774E+00  0.5000005445E+00  0.5000425380E+00  0.1507499992E+03  0.2475000082E+02 -0.9225008309E+01        24
      31       1  0.3100000000E+00         2    1         2    215495  0.4986195035E+00  0.5003170541E+00  0.5007297184E+00  0.5174792926E+02  0.8175047558E+02 -0.9374904848E+01        25
      32       1  0.3200000000E+00         1    1         1    211704  0.4999994605E+00  0.5000005621E+00  0.5000439102E+00  0.1507499992E+03  0.2475000084E+02 -0.9225008103E+01        24
      32       1  0.3200000000E+00         2    1         2    215495  0.4985749680E+00  0.5003272812E+00  0.5007532570E+00  0.5174786245E+02  0.8175049092E+02 -0.9374901317E+01        25
      33       1  0.3300000000E+00         1    1         1    211704  0.4999994437E+00  0.5000005796E+00  0.5000452824E+00  0.1507499992E+03  0.2475000087E+02 -0.9225007898E+01        24
      33       1  0.3300000000E+00         2    1         2    215495  0.4985304323E+00  0.5003375083E+00  0.5007767955E+00  0.5174779565E+02  0.8175050626E+02 -0.9374897786E+01        25
      34       1  0.3400000000E+00         1    1         1    211704  0.4999994268E+00  0.5000005972E+00  0.5000466546E+00  0.1507499991E+03  0.2475000090E+02 -0.9225007692E+01        24
      34       1  0.3400000000E+00         2    1         2    215495  0.4984858963E+00  0.5003477354E+00  0.5008003339E+00  0.5174772884E+02  0.8175052160E+02 -0.9374894255E+01        25
      35       1  0.3500000000E+00         1    1         1    211704  0.4999994100E+00  0.5000006148E+00  0.5000480268E+00  0.1507499991E+03  0.2475000092E+02 -0.9225007486E+01        24
      35       1  0.3500000000E+00         2    1         2    215495  0.4984413601E+00  0.5003579624E+00  0.5008238723E+00  0.5174766204E+02  0.8175053694E+02 -0.9374890724E+01        25
      36       1  0.3600000000E+00         1    1         1    211704  0.4999993931E+00  0.5000006323E+00  0.5000493990E+00  0.1507499991E+03  0.2475000095E+02 -0.9225007280E+01        24
      36       1  0.3600000000E+00         2    1         2    215495  0.4983968238E+00  0.5003681894E+00  0.5008474106E+00  0.5174759524E+02  0.8175055228E+02 -0.9374887194E+01        25
      37       1  0.3700000000E+00         1    1         1    211704  0.4999993762E+00  0.5000006499E+00  0.5000507712E+00  0.1507499991E+03  0.2475000097E+02 -0.9225007074E+01        24
      37       1  0.3700000000E+00         2    1         2    215495  0.4983522872E+00  0.5003784164E+00  0.5008709489E+00  0.5174752843E+02  0.8175056762E+02 -0.9374883663E+01        25
      38       1  0.3800000000E+00         1    1         1    211704  0.4999993594E+00  0.5000006674E+00  0.5000521433E+00  0.1507499990E+03  0.2475000100E+02 -0.9225006869E+01        24
      38       1  0.3800000000E+00         2    1         2    215495  0.4983077504E+00  0.5003886433E+00  0.5008944872E+00  0.5174746163E+02  0.8175058296E+02 -0.9374880132E+01        25
      39       1  0.3900000000E+00         1    1         1    211704  0.4999993425E+00  0.5000006850E+00  0.5000535155E+00  0.1507499990E+03  0.2475000103E+02 -0.9225006663E+01        24
      39       1  0.3900000000E+00         2    1         2    215495  0.4982632134E+00  0.5003988702E+00  0.5009180254E+00  0.5174739482E+02  0.8175059831E+02 -0.9374876602E+01        25
      40       1  0.4000000000E+00         1    1         1    211704  0.4999993257E+00  0.5000007026E+00  0.5000548877E+00  0.1507499990E+03  0.2475000105E+02 -0.9225006457E+01        24
      40       1  0.4000000000E+00         2    1         2    215495  0.4982186761E+00  0.5004090971E+00  0.5009415635E+00  0.5174732801E+02  0.8175061365E+02 -0.9374873071E+01        25
      41       1  0.4100000000E+00         1    1         1    211704  0.4999993088E+00  0.5000007201E+00  0.5000562599E+00  0.1507499990E+03  0.2475000108E+02 -0.9225006251E+01        24
      41       1  0.4100000000E+00         2    1         2    215495  0.4981741387E+00  0.5004193240E+00  0.5009651016E+00  0.5174726121E+02  0.8175062899E+02 -0.9374869540E+01        25
      42       1  0.4200000000E+00         1    1         1    211704  0.4999992920E+00  0.5000007377E+00  0.5000576321E+00  0.1507499989E+03  0.2475000111E+02 -0.9225006045E+01        24
      42       1  0.4200000000E+00         2    1         2    215495  0.4981296011E+00  0.5004295508E+00  0.5009886397E+00  0.5174719440E+02  0.8175064433E+02 -0.9374866009E+01        25
      43       1  0.4300000000E+00         1    1         1    211704  0.4999992751E+00  0.5000007553E+00  0.5000590043E+00  0.1507499989E+03  0.2475000113E+02 -0.9225005839E+01        24
      43       1  0.4300000000E+00         2    1         2    215495  0.4980850632E+00  0.5004397776E+00  0.5010121777E+00  0.5174712759E+02  0.8175065967E+02 -0.9374862479E+01        25
      44       1  0.4400000000E+00         1    1         1    211704  0.4999992582E+00  0.5000007728E+00  0.5000603765E+00  0.1507499989E+03  0.2475000116E+02 -0.9225005634E+01        24
      44       1  0.4400000000E+00         2    1         2    215495  0.4980405251E+00  0.5004500044E+00  0.5010357157E+00  0.5174706079E+02  0.8175067501E+02 -0.9374858948E+01        25
      45       1  0.4500000000E+00         1    1         1    211704  0.4999992414E+00  0.5000007904E+00  0.5000617487E+00  0.1507499989E+03  0.2475000119E+02 -0.9225005428E+01        24
      45       1  0.4500000000E+00         2    1         2    215495  0.4979959868E+00  0.5004602311E+00  0.5010592536E+00  0.5174699398E+02  0.8175069035E+02 -0.9374855417E+01        25
      46       1  0.4600000000E+00         1    1         1    211704  0.4999992245E+00  0.5000008080E+00  0.5000631209E+00  0.1507499988E+03  0.2475000121E+02 -0.9225005222E+01        24
      46       1  0.4600000000E+00         2    1         2    215495  0.4979514484E+00  0.5004704578E+00  0.5010827914E+00  0.5174692717E+02  0.8175070569E+02 -0.9374851887E+01        25
      47       1  0.4700000000E+00         1    1         1    211704  0.4999992077E+00  0.5000008255E+00  0.5000644931E+00  0.1507499988E+03  0.2475000124E+02 -0.9225005016E+01        24
      47       1  0.4700000000E+00         2    1         2    215495  0.4979069097E+00  0.5004806845E+00  0.5011063293E+00  0.5174686036E+02  0.8175072103E+02 -0.9374848356E+01        25
      48       1  0.4800000000E+00         1    1         1    211704  0.4999991908E+00  0.5000008431E+00  0.5000658653E+00  0.1507499988E+03  0.2475000126E+02 -0.9225004810E+01        24
      48       1  0.4800000000E+00         2    1         2    215495  0.4978623707E+00  0.5004909112E+00  0.5011298670E+00  0.5174679356E+02  0.8175073637E+02 -0.9374844825E+01        25
      49       1  0.4900000000E+00         1    1         1    211704  0.4999991739E+00  0.5000008607E+00  0.5000672375E+00  0.1507499988E+03  0.2475000129E+02 -0.9225004604E+01        24
      49       1  0.4900000000E+00         2    1         2    215495  0.4978178316E+00  0.5005011378E+00  0.5011534047E+00  0.5174672675E+02  0.8175075171E+02 -0.9374841295E+01        25
      50       1  0.5000000000E+00         1    1         1    211704  0.4999991571E+00  0.5000008782E+00  0.5000686097E+00  0.1507499987E+03  0.2475000132E+02 -0.9225004399E+01        24
      50       1  0.5000000000E+00         2    1         2    215495  0.4977732923E+00  0.5005113645E+00  0.5011769424E+00  0.5174665994E+02  0.8175076705E+02 -0.9374837764E+01        25
      51       1  0.5100000000E+00         1    1         1    211704  0.4999991402E+00  0.5000008958E+00  0.5000699819E+00  0.1507499987E+03  0.2475000134E+02 -0.9225004193E+01        24
      51       1  0.5100000000E+00         2    1         2    215495  0.4977287527E+00  0.5005215910E+00  0.5012004800E+00  0.5174659313E+02  0.8175078239E+02 -0.9374834233E+01        25
      52       1  0.5200000000E+00         1    1         1    211704  0.4999991234E+00  0.5000009134E+00  0.5000713541E+00  0.1507499987E+03  0.2475000137E+02 -0.9225003987E+01        24
      52       1  0.5200000000E+00         2    1         2    215495  0.4976842130E+00  0.5005318176E+00  0.5012240176E+00  0.5174652632E+02  0.8175079773E+02 -0.9374830703E+01        25
      53       1  0.5300000000E+00         1    1         1    211704  0.4999991065E+00  0.5000009309E+00  0.5000727263E+00  0.1507499987E+03  0.2475000140E+02 -0.9225003781E+01        24
      53       1  0.5300000000E+00         2    1         2    215495  0.4976396730E+00  0.5005420441E+00  0.5012475552E+00  0.5174645951E+02  0.8175081307E+02 -0.9374827172E+01        25
      54       1  0.5400000000E+00         1    1         1    211704  0.4999990897E+00  0.5000009485E+00  0.5000740985E+00  0.1507499986E+03  0.2475000142E+02 -0.9225003575E+01        24
      54       1  0.5400000000E+00         2    1         2    215495  0.4975951328E+00  0.5005522706E+00  0.5012710926E+00  0.5174639270E+02  0.8175082841E+02 -0.9374823642E+01        25
      55       1  0.5500000000E+00         1    1         1    211704  0.4999990728E+00  0.5000009660E+00  0.5000754707E+00  0.1507499986E+03  0.2475000145E+02 -0.9225003369E+01        24
      55       1  0.5500000000E+00         2    1         2    215495  0.4975505924E+00  0.5005624971E+00  0.5012946301E+00  0.5174632589E+02  0.8175084375E+02 -0.9374820111E+01        25
      56       1  0.5600000000E+00         1    1         1    211704  0.4999990559E+00  0.5000009836E+00  0.5000768429E+00  0.1507499986E+03  0.2475000148E+02 -0.9225003164E+01        24
      56       1  0.5600000000E+00         2    1         2    215495  0.4975060518E+00  0.5005727235E+00  0.5013181675E+00  0.5174625908E+02  0.8175085909E+02 -0.9374816580E+01        25
      57       1  0.5700000000E+00         1    1         1    211704  0.4999990391E+00  0.5000010012E+00  0.5000782151E+00  0.1507499986E+03  0.2475000150E+02 -0.9225002958E+01        24
      57       1  0.5700000000E+00         2    1         2    215495  0.4974615110E+00  0.5005829499E+00  0.5013417048E+00  0.5174619227E+02  0.8175087442E+02 -0.9374813050E+01        25
      58       1  0.5800000000E+00         1    1         1    211704  0.4999990222E+00  0.5000010187E+00  0.5000795873E+00  0.1507499985E+03  0.2475000153E+02 -0.9225002752E+01        24
      58       1  0.5800000000E+00         2    1         2    215495  0.4974169699E+00  0.5005931763E+00  0.5013652421E+00  0.5174612545E+02  0.8175088976E+02 -0.9374809519E+01        25
      59       1  0.5900000000E+00         1    1         1    211704  0.4999990054E+00  0.5000010363E+00  0.5000809595E+00  0.1507499985E+03  0.2475000155E+02 -0.9225002546E+01        24
      59       1  0.5900000000E+00         2    1         2    215495  0.4973724287E+00  0.5006034027E+00  0.5013887793E+00  0.5174605864E+02  0.8175090510E+02 -0.9374805989E+01        25
      60       1  0.6000000000E+00         1    1         1    211704  0.4999989885E+00  0.5000010539E+00  0.5000823316E+00  0.1507499985E+03  0.2475000158E+02 -0.9225002340E+01        24
      60       1  0.6000000000E+00         2    1         2    215495  0.4973278872E+00  0.5006136290E+00  0.5014123165E+00  0.5174599183E+02  0.8175092044E+02 -0.9374802458E+01        25
      61       1  0.6100000000E+00         1    1         1    211704  0.4999989716E+00  0.5000010714E+00  0.5000837038E+00  0.1507499985E+03  0.2475000161E+02 -0.9225002134E+01        24
      61       1  0.6100000000E+00         2    1         2    215495  0.4972833456E+00  0.5006238553E+00  0.5014358537E+00  0.5174592502E+02  0.8175093578E+02 -0.9374798928E+01        25
      62       1  0.6200000000E+00         1    1         1    211704  0.4999989548E+00  0.5000010890E+00  0.5000850760E+00  0.1507499984E+03  0.2475000163E+02 -0.9225001929E+01        24
      62       1  0.6200000000E+00         2    1         2    215495  0.4972388037E+00  0.5006340816E+00  0.5014593908E+00  0.5174585821E+02  0.8175095112E+02 -0.9374795397E+01        25
      63       1  0.6300000000E+00         1    1         1    211704  0.4999989379E+00  0.5000011066E+00  0.5000864482E+00  0.1507499984E+03  0.2475000166E+02 -0.9225001723E+01        24
      63       1  0.6300000000E+00         2    1         2    215495  0.4971942616E+00  0.5006443078E+00  0.5014829278E+00  0.5174579139E+02  0.8175096646E+02 -0.9374791866E+01        25
      64       1  0.6400000000E+00         1    1         1    211704  0.4999989211E+00  0.5000011241E+00  0.5000878204E+00  0.1507499984E+03  0.2475000169E+02 -0.9225001517E+01        24
      64       1  0.6400000000E+00         2    1         2    215495  0.4971497193E+00  0.5006545341E+00  0.5015064648E+00  0.5174572458E+02  0.8175098180E+02 -0.9374788336E+01        25
      65       1  0.6500000000E+00         1    1         1    211704  0.4999989042E+00  0.5000011417E+00  0.5000891926E+00  0.1507499984E+03  0.2475000171E+02 -0.9225001311E+01        24
      65       1  0.6500000000E+00         2    1         2    215495  0.4971051768E+00  0.5006647603E+00  0.5015300018E+00  0.5174565777E+02  0.8175099714E+02 -0.9374784805E+01        25
      66       1  0.6600000000E+00         1    1         1    211704  0.4999988874E+00  0.5000011593E+00  0.5000905648E+00  0.1507499983E+03  0.2475000174E+02 -0.9225001105E+01        24
      66       1  0.6600000000E+00         2    1         2    215495  0.4970606341E+00  0.5006749864E+00  0.5015535387E+00  0.5174559095E+02  0.8175101248E+02 -0.9374781275E+01        25
      67       1  0.6700000000E+00         1    1         1    211704  0.4999988705E+00  0.5000011768E+00  0.5000919370E+00  0.1507499983E+03  0.2475000177E+02 -0.9225000899E+01        24
      67       1  0.6700000000E+00         2    1         2    215495  0.4970160911E+00  0.5006852126E+00  0.5015770755E+00  0.5174552414E+02  0.8175102782E+02 -0.9374777744E+01        25
      68       1  0.6800000000E+00         1    1         1    211704  0.4999988536E+00  0.5000011944E+00  0.5000933092E+00  0.1507499983E+03  0.2475000179E+02 -0.9225000694E+01        24
      68       1  0.6800000000E+00         2    1         2    215495  0.4969715480E+00  0.5006954387E+00  0.5016006123E+00  0.5174545732E+02  0.8175104316E+02 -0.9374774214E+01        25
      69       1  0.6900000000E+00         1    1         1    211704  0.4999988368E+00  0.5000012119E+00  0.5000946814E+00  0.1507499983E+03  0.2475000182E+02 -0.9225000488E+01        24
      69       1  0.6900000000E+00         2    1         2    215495  0.4969270046E+00  0.5007056648E+00  0.5016241491E+00  0.5174539051E+02  0.8175105850E+02 -0.9374770683E+01        25
      70       1  0.7000000000E+00         1    1         1    211704  0.4999988199E+00  0.5000012295E+00  0.5000960536E+00  0.1507499982E+03  0.2475000184E+02 -0.9225000282E+01        24
      70       1  0.7000000000E+00         2    1         2    215495  0.4968824610E+00  0.5007158908E+00  0.5016476858E+00  0.5174532369E+02  0.8175107384E+02 -0.9374767153E+01        25
      71       1  0.7100000000E+00         1    1         1    211704  0.4999988031E+00  0.5000012471E+00  0.5000974258E+00  0.1507499982E+03  0.2475000187E+02 -0.9225000076E+01        24
      71       1  0.7100000000E+00         2    1         2    215495  0.4968379173E+00  0.5007261168E+00  0.5016712225E+00  0.5174525688E+02  0.8175108918E+02 -0.9374763622E+01        25
      72       1  0.7200000000E+00         1    1         1    211704  0.4999987862E+00  0.5000012646E+00  0.5000987980E+00  0.1507499982E+03  0.2475000190E+02 -0.9224999870E+01        24
      72       1  0.7200000000E+00         2    1         2    215495  0.4967933733E+00  0.5007363428E+00  0.5016947591E+00  0.5174519006E+02  0.8175110451E+02 -0.9374760092E+01        25
      73       1  0.7300000000E+00         1    1         1    211704  0.4999987693E+00  0.5000012822E+00  0.5001001702E+00  0.1507499982E+03  0.2475000192E+02 -0.9224999665E+01        24
      73       1  0.7300000000E+00         2    1         2    215495  0.4967488291E+00  0.5007465688E+00  0.5017182957E+00  0.5174512324E+02  0.8175111985E+02 -0.9374756561E+01        25
      74       1  0.7400000000E+00         1    1         1    211704  0.4999987525E+00  0.5000012998E+00  0.5001015424E+00  0.1507499981E+03  0.2475000195E+02 -0.9224999459E+01        24
      74       1  0.7400000000E+00         2    1         2    215495  0.4967042846E+00  0.5007567947E+00  0.5017418322E+00  0.5174505643E+02  0.8175113519E+02 -0.9374753031E+01        25
      75       1  0.7500000000E+00         1    1         1    211704  0.4999987356E+00  0.5000013173E+00  0.5001029146E+00  0.1507499981E+03  0.2475000198E+02 -0.9224999253E+01        24
      75       1  0.7500000000E+00         2    1         2    215495  0.4966597400E+00  0.5007670207E+00  0.5017653687E+00  0.5174498961E+02  0.8175115053E+02 -0.9374749500E+01        25
      76       1  0.7600000000E+00         1    1         1    211704  0.4999987188E+00  0.5000013349E+00  0.5001042868E+00  0.1507499981E+03  0.2475000200E+02 -0.9224999047E+01        24
      76       1  0.7600000000E+00         2    1         2    215495  0.4966151952E+00  0.5007772465E+00  0.5017889051E+00  0.5174492279E+02  0.8175116587E+02 -0.9374745970E+01        25
      77       1  0.7700000000E+00         1    1         1    211704  0.4999987019E+00  0.5000013525E+00  0.5001056590E+00  0.1507499981E+03  0.2475000203E+02 -0.9224998841E+01        24
      77       1  0.7700000000E+00         2    1         2    215495  0.4965706501E+00  0.5007874724E+00  0.5018124415E+00  0.5174485598E+02  0.8175118121E+02 -0.9374742439E+01        25
      78       1  0.7800000000E+00         1    1         1    211704  0.4999986851E+00  0.5000013700E+00  0.5001070312E+00  0.1507499980E+03  0.2475000206E+02 -0.9224998635E+01        24
      78       1  0.7800000000E+00         2    1         2    215495  0.4965261048E+00  0.5007976982E+00  0.5018359778E+00  0.5174478916E+02  0.8175119655E+02 -0.9374738909E+01        25