# File generated by Flopy version 3.8.2 on 01/07/2025 at 13:35:53.
BEGIN options
END options

BEGIN packages
  CHD6  test.chd  chd_0
  DIS6  test.dis  dis
  IC6  test.ic  ic
  OC6  test.oc  oc
  NPF6  test.npf  npf
END packages

