# File generated by Flopy version 3.9.1 on 01/29/2025 at 17:29:20.
BEGIN options
  BUDGET  FILEOUT  test.cbc
  HEAD  FILEOUT  test.hds
END options

BEGIN period  1
  SAVE  HEAD  LAST
  SAVE  BUDGET  LAST
  PRINT  BUDGET  ALL
END period  1

