MODPATH_TIMESERIES_FILE         7         2
    2   0.0000000000E+00  0.0000000000E+00  0.0000000000E+00  0.0000000000E+00
END HEADER
       0       1  0.0000000000E+00         1    1         1     15498  0.2482803000E+00  0.3436160000E+00  0.2707063000E+00  0.1458724204E+03  0.4401542400E+02 -0.7996277218E+01         2
       0       1  0.0000000000E+00         2    2         1     13000  0.4904628000E+00  0.9653651000E+00  0.6047584000E+00  0.1792356942E+03  0.7194804765E+02 -0.7158692110E+01         2
       0       1  0.0000000000E+00         3    3         1     27367  0.6750541000E+00  0.3116575000E+00  0.3825720000E+00  0.1000125812E+03  0.2146748625E+02 -0.1043287906E+02         3
       0       1  0.0000000000E+00         4    4         1     11009  0.8377220000E+00  0.4682206000E+00  0.1455991000E+00  0.1332565830E+03  0.9220233090E+02 -0.8538386881E+01         2
       0       1  0.0000000000E+00         5    5         1     19398  0.4287653000E+00  0.9171315000E+00  0.4770398000E+00  0.1161431479E+03  0.2875697250E+01 -0.7618054312E+01         2
       0       1  0.0000000000E+00         6    6         1     13094  0.4381636000E+00  0.9327257000E+00  0.5856181000E+00  0.1101572454E+03  0.7039908855E+02 -0.7526966715E+01         2
       0       1  0.0000000000E+00         7    7         1     35081  0.3257488000E+00  0.2113362000E+00  0.8507202000E+00  0.1204886232E+03  0.4381700430E+02 -0.1157477896E+02         4
       0       1  0.0000000000E+00         8    8         1     33693  0.7786650000E-02  0.1082880000E+00  0.6761773000E+00  0.1380116800E+03  0.5866243200E+02 -0.1180472603E+02         4
       0       1  0.0000000000E+00         9    9         1     37896  0.7629481000E+00  0.8270857000E+00  0.7037936000E+00  0.1436444221E+03  0.1474062855E+02 -0.1115084819E+02         4
       0       1  0.0000000000E+00        10   10         1     17747  0.1798938000E+00  0.8671042000E+00  0.6439856000E+00  0.1592698407E+03  0.2080065630E+02 -0.7609287597E+01         2
       1       1  0.1000000000E-01         1    1         1     15498  0.2482802999E+00  0.3436160000E+00  0.2707062954E+00  0.1458724204E+03  0.4401542400E+02 -0.7996277227E+01         2
       1       1  0.1000000000E-01         2    2         1     13000  0.4904627986E+00  0.9653650999E+00  0.6047583979E+00  0.1792356942E+03  0.7194804765E+02 -0.7158692115E+01         2
       1       1  0.1000000000E-01         3    3         1     27367  0.6750531929E+00  0.3116569954E+00  0.3825719992E+00  0.1000125798E+03  0.2146748549E+02 -0.1043287907E+02         3
       1       1  0.1000000000E-01         4    4         1     11009  0.8377219999E+00  0.4682206000E+00  0.1455990999E+00  0.1332565830E+03  0.9220233090E+02 -0.8538386882E+01         2
       1       1  0.1000000000E-01         5    5         1     19398  0.4287652996E+00  0.9171314998E+00  0.4770397990E+00  0.1161431479E+03  0.2875697250E+01 -0.7618054313E+01         2
       1       1  0.1000000000E-01         6    6         1     13094  0.4381635998E+00  0.9327257001E+00  0.5856180965E+00  0.1101572454E+03  0.7039908855E+02 -0.7526966724E+01         2
       1       1  0.1000000000E-01         7    7         1     35081  0.3257488000E+00  0.2113362000E+00  0.8507202000E+00  0.1204886232E+03  0.4381700430E+02 -0.1157477896E+02         4
       1       1  0.1000000000E-01         8    8         1     33693  0.7786650000E-02  0.1082880000E+00  0.6761773000E+00  0.1380116800E+03  0.5866243200E+02 -0.1180472603E+02         4
       1       1  0.1000000000E-01         9    9         1     37896  0.7629481000E+00  0.8270857000E+00  0.7037936000E+00  0.1436444221E+03  0.1474062855E+02 -0.1115084819E+02         4
       1       1  0.1000000000E-01        10   10         1     17747  0.1798937997E+00  0.8671042001E+00  0.6439855983E+00  0.1592698407E+03  0.2080065630E+02 -0.7609287602E+01         2
       2       1  0.2000000000E-01         1    1         1     15498  0.2482802998E+00  0.3436160001E+00  0.2707062908E+00  0.1458724204E+03  0.4401542400E+02 -0.7996277236E+01         2
       2       1  0.2000000000E-01         2    2         1     13000  0.4904627971E+00  0.9653650997E+00  0.6047583958E+00  0.1792356942E+03  0.7194804765E+02 -0.7158692121E+01         2
       2       1  0.2000000000E-01         3    3         1     27367  0.6750522857E+00  0.3116564909E+00  0.3825719985E+00  0.1000125784E+03  0.2146748474E+02 -0.1043287907E+02         3
       2       1  0.2000000000E-01         4    4         1     11009  0.8377219999E+00  0.4682206000E+00  0.1455990998E+00  0.1332565830E+03  0.9220233090E+02 -0.8538386882E+01         2
       2       1  0.2000000000E-01         5    5         1     19398  0.4287652992E+00  0.9171314997E+00  0.4770397981E+00  0.1161431479E+03  0.2875697249E+01 -0.7618054315E+01         2
       2       1  0.2000000000E-01         6    6         1     13094  0.4381635996E+00  0.9327257001E+00  0.5856180930E+00  0.1101572454E+03  0.7039908855E+02 -0.7526966734E+01         2
       2       1  0.2000000000E-01         7    7         1     35081  0.3257488000E+00  0.2113362000E+00  0.8507202000E+00  0.1204886232E+03  0.4381700430E+02 -0.1157477896E+02         4
       2       1  0.2000000000E-01         8    8         1     33693  0.7786650000E-02  0.1082880000E+00  0.6761773000E+00  0.1380116800E+03  0.5866243200E+02 -0.1180472603E+02         4
       2       1  0.2000000000E-01         9    9         1     37896  0.7629481000E+00  0.8270857000E+00  0.7037936000E+00  0.1436444221E+03  0.1474062855E+02 -0.1115084819E+02         4
       2       1  0.2000000000E-01        10   10         1     17747  0.1798937995E+00  0.8671042002E+00  0.6439855966E+00  0.1592698407E+03  0.2080065630E+02 -0.7609287606E+01         2
       3       1  0.3000000000E-01         1    1         1     15498  0.2482802996E+00  0.3436160001E+00  0.2707062862E+00  0.1458724204E+03  0.4401542400E+02 -0.7996277244E+01         2
       3       1  0.3000000000E-01         2    2         1     13000  0.4904627957E+00  0.9653650996E+00  0.6047583936E+00  0.1792356942E+03  0.7194804765E+02 -0.7158692126E+01         2
       3       1  0.3000000000E-01         3    3         1     27367  0.6750513786E+00  0.3116559863E+00  0.3825719977E+00  0.1000125771E+03  0.2146748398E+02 -0.1043287907E+02         3
       3       1  0.3000000000E-01         4    4         1     11009  0.8377219998E+00  0.4682206000E+00  0.1455990997E+00  0.1332565830E+03  0.9220233090E+02 -0.8538386882E+01         2
       3       1  0.3000000000E-01         5    5         1     19398  0.4287652988E+00  0.9171314995E+00  0.4770397971E+00  0.1161431479E+03  0.2875697249E+01 -0.7618054317E+01         2
       3       1  0.3000000000E-01         6    6         1     13094  0.4381635994E+00  0.9327257002E+00  0.5856180895E+00  0.1101572454E+03  0.7039908855E+02 -0.7526966743E+01         2
       3       1  0.3000000000E-01         7    7         1     35081  0.3257488000E+00  0.2113362000E+00  0.8507202000E+00  0.1204886232E+03  0.4381700430E+02 -0.1157477896E+02         4
       3       1  0.3000000000E-01         8    8         1     33693  0.7786649999E-02  0.1082880000E+00  0.6761773000E+00  0.1380116800E+03  0.5866243200E+02 -0.1180472603E+02         4
       3       1  0.3000000000E-01         9    9         1     37896  0.7629481000E+00  0.8270857000E+00  0.7037936000E+00  0.1436444221E+03  0.1474062855E+02 -0.1115084819E+02         4
       3       1  0.3000000000E-01        10   10         1     17747  0.1798937992E+00  0.8671042003E+00  0.6439855949E+00  0.1592698407E+03  0.2080065630E+02 -0.7609287611E+01         2
       4       1  0.4000000000E-01         1    1         1     15498  0.2482802995E+00  0.3436160001E+00  0.2707062816E+00  0.1458724204E+03  0.4401542400E+02 -0.7996277253E+01         2
       4       1  0.4000000000E-01         2    2         1     13000  0.4904627942E+00  0.9653650995E+00  0.6047583915E+00  0.1792356942E+03  0.7194804765E+02 -0.7158692132E+01         2
       4       1  0.4000000000E-01         3    3         1     27367  0.6750504714E+00  0.3116554817E+00  0.3825719969E+00  0.1000125757E+03  0.2146748322E+02 -0.1043287907E+02         3
       4       1  0.4000000000E-01         4    4         1     11009  0.8377219998E+00  0.4682206001E+00  0.1455990996E+00  0.1332565830E+03  0.9220233090E+02 -0.8538386882E+01         2
       4       1  0.4000000000E-01         5    5         1     19398  0.4287652983E+00  0.9171314993E+00  0.4770397961E+00  0.1161431479E+03  0.2875697249E+01 -0.7618054318E+01         2
       4       1  0.4000000000E-01         6    6         1     13094  0.4381635992E+00  0.9327257003E+00  0.5856180860E+00  0.1101572454E+03  0.7039908855E+02 -0.7526966753E+01         2
       4       1  0.4000000000E-01         7    7         1     35081  0.3257488000E+00  0.2113362000E+00  0.8507202000E+00  0.1204886232E+03  0.4381700430E+02 -0.1157477896E+02         4
       4       1  0.4000000000E-01         8    8         1     33693  0.7786649999E-02  0.1082880000E+00  0.6761773000E+00  0.1380116800E+03  0.5866243200E+02 -0.1180472603E+02         4
       4       1  0.4000000000E-01         9    9         1     37896  0.7629481000E+00  0.8270857000E+00  0.7037936000E+00  0.1436444221E+03  0.1474062855E+02 -0.1115084819E+02         4
       4       1  0.4000000000E-01        10   10         1     17747  0.1798937990E+00  0.8671042003E+00  0.6439855933E+00  0.1592698407E+03  0.2080065630E+02 -0.7609287616E+01         2
       5       1  0.5000000000E-01         1    1         1     15498  0.2482802994E+00  0.3436160002E+00  0.2707062770E+00  0.1458724204E+03  0.4401542400E+02 -0.7996277262E+01         2
       5       1  0.5000000000E-01         2    2         1     13000  0.4904627928E+00  0.9653650993E+00  0.6047583894E+00  0.1792356942E+03  0.7194804765E+02 -0.7158692138E+01         2
       5       1  0.5000000000E-01         3    3         1     27367  0.6750495643E+00  0.3116549771E+00  0.3825719961E+00  0.1000125743E+03  0.2146748247E+02 -0.1043287908E+02         3
       5       1  0.5000000000E-01         4    4         1     11009  0.8377219997E+00  0.4682206001E+00  0.1455990995E+00  0.1332565830E+03  0.9220233090E+02 -0.8538386883E+01         2
       5       1  0.5000000000E-01         5    5         1     19398  0.4287652979E+00  0.9171314992E+00  0.4770397952E+00  0.1161431479E+03  0.2875697249E+01 -0.7618054320E+01         2
       5       1  0.5000000000E-01         6    6         1     13094  0.4381635989E+00  0.9327257004E+00  0.5856180825E+00  0.1101572454E+03  0.7039908855E+02 -0.7526966762E+01         2
       5       1  0.5000000000E-01         7    7         1     35081  0.3257488000E+00  0.2113362000E+00  0.8507202000E+00  0.1204886232E+03  0.4381700430E+02 -0.1157477896E+02         4
       5       1  0.5000000000E-01         8    8         1     33693  0.7786649999E-02  0.1082880000E+00  0.6761773000E+00  0.1380116800E+03  0.5866243200E+02 -0.1180472603E+02         4
       5       1  0.5000000000E-01         9    9         1     37896  0.7629481000E+00  0.8270857000E+00  0.7037936000E+00  0.1436444221E+03  0.1474062855E+02 -0.1115084819E+02         4
       5       1  0.5000000000E-01        10   10         1     17747  0.1798937987E+00  0.8671042004E+00  0.6439855916E+00  0.1592698407E+03  0.2080065630E+02 -0.7609287620E+01         2
       6       1  0.6000000000E-01         1    1         1     15498  0.2482802993E+00  0.3436160002E+00  0.2707062724E+00  0.1458724204E+03  0.4401542400E+02 -0.7996277270E+01         2
       6       1  0.6000000000E-01         2    2         1     13000  0.4904627914E+00  0.9653650992E+00  0.6047583873E+00  0.1792356942E+03  0.7194804765E+02 -0.7158692143E+01         2
       6       1  0.6000000000E-01         3    3         1     27367  0.6750486571E+00  0.3116544726E+00  0.3825719954E+00  0.1000125730E+03  0.2146748171E+02 -0.1043287908E+02         3
       6       1  0.6000000000E-01         4    4         1     11009  0.8377219997E+00  0.4682206001E+00  0.1455990994E+00  0.1332565830E+03  0.9220233090E+02 -0.8538386883E+01         2
       6       1  0.6000000000E-01         5    5         1     19398  0.4287652975E+00  0.9171314990E+00  0.4770397942E+00  0.1161431479E+03  0.2875697248E+01 -0.7618054322E+01         2
       6       1  0.6000000000E-01         6    6         1     13094  0.4381635987E+00  0.9327257004E+00  0.5856180789E+00  0.1101572454E+03  0.7039908855E+02 -0.7526966771E+01         2
       6       1  0.6000000000E-01         7    7         1     35081  0.3257488000E+00  0.2113362000E+00  0.8507202000E+00  0.1204886232E+03  0.4381700430E+02 -0.1157477896E+02         4
       6       1  0.6000000000E-01         8    8         1     33693  0.7786649999E-02  0.1082880000E+00  0.6761773000E+00  0.1380116800E+03  0.5866243200E+02 -0.1180472603E+02         4
       6       1  0.6000000000E-01         9    9         1     37896  0.7629481000E+00  0.8270857000E+00  0.7037936000E+00  0.1436444221E+03  0.1474062855E+02 -0.1115084819E+02         4
       6       1  0.6000000000E-01        10   10         1     17747  0.1798937984E+00  0.8671042005E+00  0.6439855899E+00  0.1592698407E+03  0.2080065630E+02 -0.7609287625E+01         2
       7       1  0.7000000000E-01         1    1         1     15498  0.2482802991E+00  0.3436160002E+00  0.2707062678E+00  0.1458724204E+03  0.4401542400E+02 -0.7996277279E+01         2
       7       1  0.7000000000E-01         2    2         1     13000  0.4904627899E+00  0.9653650991E+00  0.6047583852E+00  0.1792356942E+03  0.7194804765E+02 -0.7158692149E+01         2
       7       1  0.7000000000E-01         3    3         1     27367  0.6750477500E+00  0.3116539680E+00  0.3825719946E+00  0.1000125716E+03  0.2146748095E+02 -0.1043287908E+02         3
       7       1  0.7000000000E-01         4    4         1     11009  0.8377219996E+00  0.4682206001E+00  0.1455990993E+00  0.1332565830E+03  0.9220233090E+02 -0.8538386883E+01         2
       7       1  0.7000000000E-01         5    5         1     19398  0.4287652971E+00  0.9171314988E+00  0.4770397932E+00  0.1161431479E+03  0.2875697248E+01 -0.7618054324E+01         2
       7       1  0.7000000000E-01         6    6         1     13094  0.4381635985E+00  0.9327257005E+00  0.5856180754E+00  0.1101572454E+03  0.7039908855E+02 -0.7526966781E+01         2
       7       1  0.7000000000E-01         7    7         1     35081  0.3257488000E+00  0.2113362000E+00  0.8507202000E+00  0.1204886232E+03  0.4381700430E+02 -0.1157477896E+02         4
       7       1  0.7000000000E-01         8    8         1     33693  0.7786649998E-02  0.1082880000E+00  0.6761773000E+00  0.1380116800E+03  0.5866243200E+02 -0.1180472603E+02         4
       7       1  0.7000000000E-01         9    9         1     37896  0.7629481000E+00  0.8270857000E+00  0.7037936000E+00  0.1436444221E+03  0.1474062855E+02 -0.1115084819E+02         4
       7       1  0.7000000000E-01        10   10         1     17747  0.1798937982E+00  0.8671042006E+00  0.6439855882E+00  0.1592698407E+03  0.2080065630E+02 -0.7609287630E+01         2
       8       1  0.8000000000E-01         1    1         1     15498  0.2482802990E+00  0.3436160003E+00  0.2707062631E+00  0.1458724204E+03  0.4401542400E+02 -0.7996277288E+01         2
       8       1  0.8000000000E-01         2    2         1     13000  0.4904627885E+00  0.9653650990E+00  0.6047583830E+00  0.1792356942E+03  0.7194804765E+02 -0.7158692154E+01         2
       8       1  0.8000000000E-01         3    3         1     27367  0.6750468428E+00  0.3116534634E+00  0.3825719938E+00  0.1000125703E+03  0.2146748020E+02 -0.1043287908E+02         3
       8       1  0.8000000000E-01         4    4         1     11009  0.8377219996E+00  0.4682206001E+00  0.1455990992E+00  0.1332565830E+03  0.9220233090E+02 -0.8538386883E+01         2
       8       1  0.8000000000E-01         5    5         1     19398  0.4287652967E+00  0.9171314987E+00  0.4770397923E+00  0.1161431479E+03  0.2875697248E+01 -0.7618054325E+01         2
       8       1  0.8000000000E-01         6    6         1     13094  0.4381635983E+00  0.9327257006E+00  0.5856180719E+00  0.1101572454E+03  0.7039908855E+02 -0.7526966790E+01         2
       8       1  0.8000000000E-01         7    7         1     35081  0.3257488000E+00  0.2113362000E+00  0.8507202000E+00  0.1204886232E+03  0.4381700430E+02 -0.1157477896E+02         4
       8       1  0.8000000000E-01         8    8         1     33693  0.7786649998E-02  0.1082880000E+00  0.6761773000E+00  0.1380116800E+03  0.5866243200E+02 -0.1180472603E+02         4
       8       1  0.8000000000E-01         9    9         1     37896  0.7629481000E+00  0.8270857000E+00  0.7037936000E+00  0.1436444221E+03  0.1474062855E+02 -0.1115084819E+02         4
       8       1  0.8000000000E-01        10   10         1     17747  0.1798937979E+00  0.8671042007E+00  0.6439855865E+00  0.1592698407E+03  0.2080065630E+02 -0.7609287634E+01         2
       9       1  0.9000000000E-01         1    1         1     15498  0.2482802989E+00  0.3436160003E+00  0.2707062585E+00  0.1458724204E+03  0.4401542400E+02 -0.7996277297E+01         2
       9       1  0.9000000000E-01         2    2         1     13000  0.4904627870E+00  0.9653650988E+00  0.6047583809E+00  0.1792356942E+03  0.7194804765E+02 -0.7158692160E+01         2
       9       1  0.9000000000E-01         3    3         1     27367  0.6750459357E+00  0.3116529588E+00  0.3825719931E+00  0.1000125689E+03  0.2146747944E+02 -0.1043287908E+02         3
       9       1  0.9000000000E-01         4    4         1     11009  0.8377219995E+00  0.4682206001E+00  0.1455990991E+00  0.1332565830E+03  0.9220233090E+02 -0.8538386884E+01         2
       9       1  0.9000000000E-01         5    5         1     19398  0.4287652963E+00  0.9171314985E+00  0.4770397913E+00  0.1161431479E+03  0.2875697248E+01 -0.7618054327E+01         2
       9       1  0.9000000000E-01         6    6         1     13094  0.4381635981E+00  0.9327257007E+00  0.5856180684E+00  0.1101572454E+03  0.7039908855E+02 -0.7526966800E+01         2
       9       1  0.9000000000E-01         7    7         1     35081  0.3257488000E+00  0.2113362000E+00  0.8507202000E+00  0.1204886232E+03  0.4381700430E+02 -0.1157477896E+02         4
       9       1  0.9000000000E-01         8    8         1     33693  0.7786649998E-02  0.1082880000E+00  0.6761773000E+00  0.1380116800E+03  0.5866243200E+02 -0.1180472603E+02         4
       9       1  0.9000000000E-01         9    9         1     37896  0.7629481000E+00  0.8270857000E+00  0.7037936000E+00  0.1436444221E+03  0.1474062855E+02 -0.1115084819E+02         4
       9       1  0.9000000000E-01        10   10         1     17747  0.1798937977E+00  0.8671042008E+00  0.6439855848E+00  0.1592698407E+03  0.2080065630E+02 -0.7609287639E+01         2
      10       1  0.1000000000E+00         1    1         1     15498  0.2482802988E+00  0.3436160003E+00  0.2707062539E+00  0.1458724204E+03  0.4401542400E+02 -0.7996277305E+01         2
      10       1  0.1000000000E+00         2    2         1     13000  0.4904627856E+00  0.9653650987E+00  0.6047583788E+00  0.1792356942E+03  0.7194804765E+02 -0.7158692165E+01         2
      10       1  0.1000000000E+00         3    3         1     27367  0.6750450286E+00  0.3116524543E+00  0.3825719923E+00  0.1000125675E+03  0.2146747868E+02 -0.1043287909E+02         3
      10       1  0.1000000000E+00         4    4         1     11009  0.8377219995E+00  0.4682206002E+00  0.1455990990E+00  0.1332565830E+03  0.9220233090E+02 -0.8538386884E+01         2
      10       1  0.1000000000E+00         5    5         1     19398  0.4287652959E+00  0.9171314983E+00  0.4770397903E+00  0.1161431479E+03  0.2875697247E+01 -0.7618054329E+01         2
      10       1  0.1000000000E+00         6    6         1     13094  0.4381635979E+00  0.9327257007E+00  0.5856180649E+00  0.1101572454E+03  0.7039908855E+02 -0.7526966809E+01         2
      10       1  0.1000000000E+00         7    7         1     35081  0.3257488000E+00  0.2113362000E+00  0.8507202000E+00  0.1204886232E+03  0.4381700430E+02 -0.1157477896E+02         4
      10       1  0.1000000000E+00         8    8         1     33693  0.7786649998E-02  0.1082880000E+00  0.6761773000E+00  0.1380116800E+03  0.5866243200E+02 -0.1180472603E+02         4
      10       1  0.1000000000E+00         9    9         1     37896  0.7629481000E+00  0.8270857000E+00  0.7037936000E+00  0.1436444221E+03  0.1474062855E+02 -0.1115084819E+02         4
      10       1  0.1000000000E+00        10   10         1     17747  0.1798937974E+00  0.8671042009E+00  0.6439855831E+00  0.1592698407E+03  0.2080065630E+02 -0.7609287644E+01         2
      11       1  0.1100000000E+00         1    1         1     15498  0.2482802986E+00  0.3436160004E+00  0.2707062493E+00  0.1458724204E+03  0.4401542400E+02 -0.7996277314E+01         2
      11       1  0.1100000000E+00         2    2         1     13000  0.4904627841E+00  0.9653650986E+00  0.6047583767E+00  0.1792356942E+03  0.7194804765E+02 -0.7158692171E+01         2
      11       1  0.1100000000E+00         3    3         1     27367  0.6750441214E+00  0.3116519497E+00  0.3825719915E+00  0.1000125662E+03  0.2146747792E+02 -0.1043287909E+02         3
      11       1  0.1100000000E+00         4    4         1     11009  0.8377219994E+00  0.4682206002E+00  0.1455990989E+00  0.1332565830E+03  0.9220233090E+02 -0.8538386884E+01         2
      11       1  0.1100000000E+00         5    5         1     19398  0.4287652955E+00  0.9171314982E+00  0.4770397894E+00  0.1161431479E+03  0.2875697247E+01 -0.7618054330E+01         2
      11       1  0.1100000000E+00         6    6         1     13094  0.4381635977E+00  0.9327257008E+00  0.5856180614E+00  0.1101572454E+03  0.7039908855E+02 -0.7526966819E+01         2
      11       1  0.1100000000E+00         7    7         1     35081  0.3257488000E+00  0.2113362000E+00  0.8507202000E+00  0.1204886232E+03  0.4381700430E+02 -0.1157477896E+02         4
      11       1  0.1100000000E+00         8    8         1     33693  0.7786649998E-02  0.1082880000E+00  0.6761773000E+00  0.1380116800E+03  0.5866243200E+02 -0.1180472603E+02         4
      11       1  0.1100000000E+00         9    9         1     37896  0.7629481000E+00  0.8270857000E+00  0.7037936000E+00  0.1436444221E+03  0.1474062855E+02 -0.1115084819E+02         4
      11       1  0.1100000000E+00        10   10         1     17747  0.1798937971E+00  0.8671042009E+00  0.6439855815E+00  0.1592698407E+03  0.2080065630E+02 -0.7609287648E+01         2
      12       1  0.1200000000E+00         1    1         1     15498  0.2482802985E+00  0.3436160004E+00  0.2707062447E+00  0.1458724204E+03  0.4401542400E+02 -0.7996277323E+01         2
      12       1  0.1200000000E+00         2    2         1     13000  0.4904627827E+00  0.9653650984E+00  0.6047583746E+00  0.1792356942E+03  0.7194804765E+02 -0.7158692177E+01         2
      12       1  0.1200000000E+00         3    3         1     27367  0.6750432143E+00  0.3116514451E+00  0.3825719907E+00  0.1000125648E+03  0.2146747717E+02 -0.1043287909E+02         3
      12       1  0.1200000000E+00         4    4         1     11009  0.8377219994E+00  0.4682206002E+00  0.1455990988E+00  0.1332565830E+03  0.9220233090E+02 -0.8538386884E+01         2
      12       1  0.1200000000E+00         5    5         1     19398  0.4287652950E+00  0.9171314980E+00  0.4770397884E+00  0.1161431479E+03  0.2875697247E+01 -0.7618054332E+01         2
      12       1  0.1200000000E+00         6    6         1     13094  0.4381635975E+00  0.9327257009E+00  0.5856180579E+00  0.1101572454E+03  0.7039908855E+02 -0.7526966828E+01         2
      12       1  0.1200000000E+00         7    7         1     35081  0.3257488000E+00  0.2113362000E+00  0.8507202000E+00  0.1204886232E+03  0.4381700430E+02 -0.1157477896E+02         4
      12       1  0.1200000000E+00         8    8         1     33693  0.7786649997E-02  0.1082880000E+00  0.6761773000E+00  0.1380116800E+03  0.5866243200E+02 -0.1180472603E+02         4
      12       1  0.1200000000E+00         9    9         1     37896  0.7629481000E+00  0.8270857000E+00  0.7037936000E+00  0.1436444221E+03  0.1474062855E+02 -0.1115084819E+02         4
      12       1  0.1200000000E+00        10   10         1     17747  0.1798937969E+00  0.8671042010E+00  0.6439855798E+00  0.1592698407E+03  0.2080065630E+02 -0.7609287653E+01         2
      13       1  0.1300000000E+00         1    1         1     15498  0.2482802984E+00  0.3436160004E+00  0.2707062401E+00  0.1458724204E+03  0.4401542400E+02 -0.7996277332E+01         2
      13       1  0.1300000000E+00         2    2         1     13000  0.4904627813E+00  0.9653650983E+00  0.6047583724E+00  0.1792356942E+03  0.7194804765E+02 -0.7158692182E+01         2
      13       1  0.1300000000E+00         3    3         1     27367  0.6750423071E+00  0.3116509405E+00  0.3825719900E+00  0.1000125635E+03  0.2146747641E+02 -0.1043287909E+02         3
      13       1  0.1300000000E+00         4    4         1     11009  0.8377219993E+00  0.4682206002E+00  0.1455990987E+00  0.1332565830E+03  0.9220233090E+02 -0.8538386885E+01         2
      13       1  0.1300000000E+00         5    5         1     19398  0.4287652946E+00  0.9171314978E+00  0.4770397874E+00  0.1161431479E+03  0.2875697247E+01 -0.7618054334E+01         2
      13       1  0.1300000000E+00         6    6         1     13094  0.4381635973E+00  0.9327257010E+00  0.5856180544E+00  0.1101572454E+03  0.7039908855E+02 -0.7526966838E+01         2
      13       1  0.1300000000E+00         7    7         1     35081  0.3257488000E+00  0.2113362000E+00  0.8507202000E+00  0.1204886232E+03  0.4381700430E+02 -0.1157477896E+02         4
      13       1  0.1300000000E+00         8    8         1     33693  0.7786649997E-02  0.1082880000E+00  0.6761773000E+00  0.1380116800E+03  0.5866243200E+02 -0.1180472603E+02         4
      13       1  0.1300000000E+00         9    9         1     37896  0.7629481000E+00  0.8270857000E+00  0.7037936000E+00  0.1436444221E+03  0.1474062855E+02 -0.1115084819E+02         4
      13       1  0.1300000000E+00        10   10         1     17747  0.1798937966E+00  0.8671042011E+00  0.6439855781E+00  0.1592698407E+03  0.2080065630E+02 -0.7609287658E+01         2
      14       1  0.1400000000E+00         1    1         1     15498  0.2482802983E+00  0.3436160005E+00  0.2707062355E+00  0.1458724204E+03  0.4401542400E+02 -0.7996277340E+01         2
      14       1  0.1400000000E+00         2    2         1     13000  0.4904627798E+00  0.9653650982E+00  0.6047583703E+00  0.1792356942E+03  0.7194804765E+02 -0.7158692188E+01         2
      14       1  0.1400000000E+00         3    3         1     27367  0.6750414000E+00  0.3116504360E+00  0.3825719892E+00  0.1000125621E+03  0.2146747565E+02 -0.1043287909E+02         3
      14       1  0.1400000000E+00         4    4         1     11009  0.8377219993E+00  0.4682206002E+00  0.1455990985E+00  0.1332565830E+03  0.9220233090E+02 -0.8538386885E+01         2
      14       1  0.1400000000E+00         5    5         1     19398  0.4287652942E+00  0.9171314977E+00  0.4770397865E+00  0.1161431479E+03  0.2875697246E+01 -0.7618054335E+01         2
      14       1  0.1400000000E+00         6    6         1     13094  0.4381635971E+00  0.9327257010E+00  0.5856180509E+00  0.1101572454E+03  0.7039908855E+02 -0.7526966847E+01         2
      14       1  0.1400000000E+00         7    7         1     35081  0.3257488000E+00  0.2113362000E+00  0.8507202000E+00  0.1204886232E+03  0.4381700430E+02 -0.1157477896E+02         4
      14       1  0.1400000000E+00         8    8         1     33693  0.7786649997E-02  0.1082880000E+00  0.6761773000E+00  0.1380116800E+03  0.5866243200E+02 -0.1180472603E+02         4
      14       1  0.1400000000E+00         9    9         1     37896  0.7629481000E+00  0.8270857000E+00  0.7037936000E+00  0.1436444221E+03  0.1474062855E+02 -0.1115084819E+02         4
      14       1  0.1400000000E+00        10   10         1     17747  0.1798937964E+00  0.8671042012E+00  0.6439855764E+00  0.1592698407E+03  0.2080065630E+02 -0.7609287663E+01         2
      15       1  0.1500000000E+00         1    1         1     15498  0.2482802981E+00  0.3436160005E+00  0.2707062309E+00  0.1458724204E+03  0.4401542400E+02 -0.7996277349E+01         2
      15       1  0.1500000000E+00         2    2         1     13000  0.4904627784E+00  0.9653650980E+00  0.6047583682E+00  0.1792356942E+03  0.7194804765E+02 -0.7158692193E+01         2
      15       1  0.1500000000E+00         3    3         1     27367  0.6750404928E+00  0.3116499314E+00  0.3825719884E+00  0.1000125607E+03  0.2146747490E+02 -0.1043287910E+02         3
      15       1  0.1500000000E+00         4    4         1     11009  0.8377219992E+00  0.4682206002E+00  0.1455990984E+00  0.1332565830E+03  0.9220233090E+02 -0.8538386885E+01         2
      15       1  0.1500000000E+00         5    5         1     19398  0.4287652938E+00  0.9171314975E+00  0.4770397855E+00  0.1161431479E+03  0.2875697246E+01 -0.7618054337E+01         2
      15       1  0.1500000000E+00         6    6         1     13094  0.4381635968E+00  0.9327257011E+00  0.5856180474E+00  0.1101572454E+03  0.7039908855E+02 -0.7526966856E+01         2
      15       1  0.1500000000E+00         7    7         1     35081  0.3257488000E+00  0.2113362000E+00  0.8507202000E+00  0.1204886232E+03  0.4381700430E+02 -0.1157477896E+02         4
      15       1  0.1500000000E+00         8    8         1     33693  0.7786649997E-02  0.1082880000E+00  0.6761773000E+00  0.1380116800E+03  0.5866243200E+02 -0.1180472603E+02         4