# File generated by Flopy version 3.4.1 on 01/08/2025 at 09:33:45.
BEGIN options
END options

BEGIN packages
  CHD6  test.chd  chd_0
  DIS6  test.dis  dis
  IC6  test.ic  ic
  OC6  test.oc  oc
  NPF6  test.npf  npf
END packages

