MODPATH_TIMESERIES_FILE         7         2
    2   0.0000000000E+00  0.0000000000E+00  0.0000000000E+00  0.0000000000E+00
END HEADER
       0       1  0.0000000000E+00         1    1         1     10268  0.1333333000E+00  0.5000000000E+00  0.7221796000E+00  0.7069999995E+02  0.9975000000E+02 -0.7000000044E+01         2
       0       1  0.0000000000E+00         2    2         1     10268  0.1333333000E+00  0.5000000000E+00  0.7764606000E-01  0.7069999995E+02  0.9975000000E+02 -0.9000000013E+01         2
       0       1  0.0000000000E+00         3    3         1     29868  0.1333333000E+00  0.5000000000E+00  0.8818390000E+00  0.7069999995E+02  0.9975000000E+02 -0.1099999994E+02         4
       1       1  0.1000000000E-01         1    1         1     10268  0.1333332993E+00  0.5000000001E+00  0.7221796020E+00  0.7069999995E+02  0.9975000000E+02 -0.7000000038E+01         2
       1       1  0.1000000000E-01         2    2         1     10268  0.1333332993E+00  0.5000000001E+00  0.7764606181E-01  0.7069999995E+02  0.9975000000E+02 -0.9000000007E+01         2
       1       1  0.1000000000E-01         3    3         1     29868  0.1333333000E+00  0.5000000000E+00  0.8818390000E+00  0.7069999995E+02  0.9975000000E+02 -0.1099999994E+02         4
       2       1  0.2000000000E-01         1    1         1     10268  0.1333332986E+00  0.5000000003E+00  0.7221796039E+00  0.7069999995E+02  0.9975000000E+02 -0.7000000032E+01         2
       2       1  0.2000000000E-01         2    2         1     10268  0.1333332986E+00  0.5000000003E+00  0.7764606362E-01  0.7069999995E+02  0.9975000000E+02 -0.9000000001E+01         2
       2       1  0.2000000000E-01         3    3         1     29868  0.1333333000E+00  0.5000000000E+00  0.8818390000E+00  0.7069999995E+02  0.9975000000E+02 -0.1099999994E+02         4
       3       1  0.3000000000E-01         1    1         1     10268  0.1333332979E+00  0.5000000004E+00  0.7221796059E+00  0.7069999995E+02  0.9975000000E+02 -0.7000000025E+01         2
       3       1  0.3000000000E-01         2    2         1     10268  0.1333332979E+00  0.5000000004E+00  0.7764606542E-01  0.7069999995E+02  0.9975000000E+02 -0.8999999996E+01         2
       3       1  0.3000000000E-01         3    3         1     29868  0.1333333000E+00  0.5000000000E+00  0.8818390000E+00  0.7069999995E+02  0.9975000000E+02 -0.1099999994E+02         4
       4       1  0.4000000000E-01         1    1         1     10268  0.1333332972E+00  0.5000000006E+00  0.7221796078E+00  0.7069999995E+02  0.9975000000E+02 -0.7000000019E+01         2
       4       1  0.4000000000E-01         2    2         1     10268  0.1333332972E+00  0.5000000006E+00  0.7764606723E-01  0.7069999995E+02  0.9975000000E+02 -0.8999999990E+01         2
       4       1  0.4000000000E-01         3    3         1     29868  0.1333333000E+00  0.5000000000E+00  0.8818390000E+00  0.7069999995E+02  0.9975000000E+02 -0.1099999994E+02         4
       5       1  0.5000000000E-01         1    1         1     10268  0.1333332964E+00  0.5000000007E+00  0.7221796098E+00  0.7069999994E+02  0.9975000000E+02 -0.7000000013E+01         2
       5       1  0.5000000000E-01         2    2         1     10268  0.1333332964E+00  0.5000000007E+00  0.7764606904E-01  0.7069999994E+02  0.9975000000E+02 -0.8999999985E+01         2
       5       1  0.5000000000E-01         3    3         1     29868  0.1333333000E+00  0.5000000000E+00  0.8818390000E+00  0.7069999995E+02  0.9975000000E+02 -0.1099999994E+02         4
       6       1  0.6000000000E-01         1    1         1     10268  0.1333332957E+00  0.5000000009E+00  0.7221796118E+00  0.7069999994E+02  0.9975000000E+02 -0.7000000007E+01         2
       6       1  0.6000000000E-01         2    2         1     10268  0.1333332957E+00  0.5000000009E+00  0.7764607085E-01  0.7069999994E+02  0.9975000000E+02 -0.8999999979E+01         2
       6       1  0.6000000000E-01         3    3         1     29868  0.1333333000E+00  0.5000000000E+00  0.8818390000E+00  0.7069999995E+02  0.9975000000E+02 -0.1099999994E+02         4
       7       1  0.7000000000E-01         1    1         1     10268  0.1333332950E+00  0.5000000010E+00  0.7221796137E+00  0.7069999994E+02  0.9975000000E+02 -0.7000000001E+01         2
       7       1  0.7000000000E-01         2    2         1     10268  0.1333332950E+00  0.5000000010E+00  0.7764607266E-01  0.7069999994E+02  0.9975000000E+02 -0.8999999973E+01         2
       7       1  0.7000000000E-01         3    3         1     29868  0.1333333000E+00  0.5000000000E+00  0.8818390000E+00  0.7069999995E+02  0.9975000000E+02 -0.1099999994E+02         4
       8       1  0.8000000000E-01         1    1         1     10268  0.1333332943E+00  0.5000000011E+00  0.7221796157E+00  0.7069999994E+02  0.9975000000E+02 -0.6999999995E+01         2
       8       1  0.8000000000E-01         2    2         1     10268  0.1333332943E+00  0.5000000011E+00  0.7764607446E-01  0.7069999994E+02  0.9975000000E+02 -0.8999999968E+01         2
       8       1  0.8000000000E-01         3    3         1     29868  0.1333333000E+00  0.5000000000E+00  0.8818390000E+00  0.7069999995E+02  0.9975000000E+02 -0.1099999994E+02         4
       9       1  0.9000000000E-01         1    1         1     10268  0.1333332936E+00  0.5000000013E+00  0.7221796177E+00  0.7069999994E+02  0.9975000000E+02 -0.6999999989E+01         2
       9       1  0.9000000000E-01         2    2         1     10268  0.1333332936E+00  0.5000000013E+00  0.7764607627E-01  0.7069999994E+02  0.9975000000E+02 -0.8999999962E+01         2
       9       1  0.9000000000E-01         3    3         1     29868  0.1333333000E+00  0.5000000000E+00  0.8818390000E+00  0.7069999995E+02  0.9975000000E+02 -0.1099999994E+02         4
      10       1  0.1000000000E+00         1    1         1     10268  0.1333332929E+00  0.5000000014E+00  0.7221796196E+00  0.7069999994E+02  0.9975000000E+02 -0.6999999983E+01         2
      10       1  0.1000000000E+00         2    2         1     10268  0.1333332929E+00  0.5000000014E+00  0.7764607808E-01  0.7069999994E+02  0.9975000000E+02 -0.8999999957E+01         2
      10       1  0.1000000000E+00         3    3         1     29868  0.1333333000E+00  0.5000000000E+00  0.8818390000E+00  0.7069999995E+02  0.9975000000E+02 -0.1099999994E+02         4
      11       1  0.1100000000E+00         1    1         1     10268  0.1333332922E+00  0.5000000016E+00  0.7221796216E+00  0.7069999994E+02  0.9975000000E+02 -0.6999999977E+01         2
      11       1  0.1100000000E+00         2    2         1     10268  0.1333332922E+00  0.5000000016E+00  0.7764607989E-01  0.7069999994E+02  0.9975000000E+02 -0.8999999951E+01         2
      11       1  0.1100000000E+00         3    3         1     29868  0.1333333000E+00  0.5000000000E+00  0.8818390000E+00  0.7069999995E+02  0.9975000000E+02 -0.1099999994E+02         4
      12       1  0.1200000000E+00         1    1         1     10268  0.1333332915E+00  0.5000000017E+00  0.7221796235E+00  0.7069999994E+02  0.9975000000E+02 -0.6999999971E+01         2
      12       1  0.1200000000E+00         2    2         1     10268  0.1333332915E+00  0.5000000017E+00  0.7764608170E-01  0.7069999994E+02  0.9975000000E+02 -0.8999999945E+01         2
      12       1  0.1200000000E+00         3    3         1     29868  0.1333333000E+00  0.5000000000E+00  0.8818390000E+00  0.7069999995E+02  0.9975000000E+02 -0.1099999994E+02         4
      13       1  0.1300000000E+00         1    1         1     10268  0.1333332908E+00  0.5000000019E+00  0.7221796255E+00  0.7069999994E+02  0.9975000000E+02 -0.6999999965E+01         2
      13       1  0.1300000000E+00         2    2         1     10268  0.1333332908E+00  0.5000000019E+00  0.7764608350E-01  0.7069999994E+02  0.9975000000E+02 -0.8999999940E+01         2
      13       1  0.1300000000E+00         3    3         1     29868  0.1333333000E+00  0.5000000000E+00  0.8818390000E+00  0.7069999995E+02  0.9975000000E+02 -0.1099999994E+02         4
      14       1  0.1400000000E+00         1    1         1     10268  0.1333332900E+00  0.5000000020E+00  0.7221796275E+00  0.7069999994E+02  0.9975000000E+02 -0.6999999958E+01         2
      14       1  0.1400000000E+00         2    2         1     10268  0.1333332900E+00  0.5000000020E+00  0.7764608531E-01  0.7069999994E+02  0.9975000000E+02 -0.8999999934E+01         2
      14       1  0.1400000000E+00         3    3         1     29868  0.1333333000E+00  0.5000000000E+00  0.8818390000E+00  0.7069999995E+02  0.9975000000E+02 -0.1099999994E+02         4
      15       1  0.1500000000E+00         1    1         1     10268  0.1333332893E+00  0.5000000022E+00  0.7221796294E+00  0.7069999993E+02  0.9975000000E+02 -0.6999999952E+01         2
      15       1  0.1500000000E+00         2    2         1     10268  0.1333332893E+00  0.5000000022E+00  0.7764608712E-01  0.7069999993E+02  0.9975000000E+02 -0.8999999929E+01         2
      15       1  0.1500000000E+00         3    3         1     29868  0.1333333000E+00  0.5000000000E+00  0.8818390000E+00  0.7069999995E+02  0.9975000000E+02 -0.1099999994E+02         4
      16       1  0.1600000000E+00         1    1         1     10268  0.1333332886E+00  0.5000000023E+00  0.7221796314E+00  0.7069999993E+02  0.9975000000E+02 -0.6999999946E+01         2
      16       1  0.1600000000E+00         2    2         1     10268  0.1333332886E+00  0.5000000023E+00  0.7764608893E-01  0.7069999993E+02  0.9975000000E+02 -0.8999999923E+01         2
      16       1  0.1600000000E+00         3    3         1     29868  0.1333333000E+00  0.5000000000E+00  0.8818390000E+00  0.7069999995E+02  0.9975000000E+02 -0.1099999994E+02         4
      17       1  0.1700000000E+00         1    1         1     10268  0.1333332879E+00  0.5000000024E+00  0.7221796334E+00  0.7069999993E+02  0.9975000000E+02 -0.6999999940E+01         2
      17       1  0.1700000000E+00         2    2         1     10268  0.1333332879E+00  0.5000000024E+00  0.7764609074E-01  0.7069999993E+02  0.9975000000E+02 -0.8999999917E+01         2
      17       1  0.1700000000E+00         3    3         1     29868  0.1333333000E+00  0.5000000000E+00  0.8818390000E+00  0.7069999995E+02  0.9975000000E+02 -0.1099999994E+02         4
      18       1  0.1800000000E+00         1    1         1     10268  0.1333332872E+00  0.5000000026E+00  0.7221796353E+00  0.7069999993E+02  0.9975000000E+02 -0.6999999934E+01         2
      18       1  0.1800000000E+00         2    2         1     10268  0.1333332872E+00  0.5000000026E+00  0.7764609254E-01  0.7069999993E+02  0.9975000000E+02 -0.8999999912E+01         2
      18       1  0.1800000000E+00         3    3         1     29868  0.1333333000E+00  0.5000000000E+00  0.8818390000E+00  0.7069999995E+02  0.9975000000E+02 -0.1099999994E+02         4
      19       1  0.1900000000E+00         1    1         1     10268  0.1333332865E+00  0.5000000027E+00  0.7221796373E+00  0.7069999993E+02  0.9975000000E+02 -0.6999999928E+01         2
      19       1  0.1900000000E+00         2    2         1     10268  0.1333332865E+00  0.5000000027E+00  0.7764609435E-01  0.7069999993E+02  0.9975000000E+02 -0.8999999906E+01         2
      19       1  0.1900000000E+00         3    3         1     29868  0.1333333000E+00  0.5000000000E+00  0.8818390000E+00  0.7069999995E+02  0.9975000000E+02 -0.1099999994E+02         4
      20       1  0.2000000000E+00         1    1         1     10268  0.1333332858E+00  0.5000000029E+00  0.7221796392E+00  0.7069999993E+02  0.9975000000E+02 -0.6999999922E+01         2
      20       1  0.2000000000E+00         2    2         1     10268  0.1333332858E+00  0.5000000029E+00  0.7764609616E-01  0.7069999993E+02  0.9975000000E+02 -0.8999999900E+01         2
      20       1  0.2000000000E+00         3    3         1     29868  0.1333333000E+00  0.5000000000E+00  0.8818390000E+00  0.7069999995E+02  0.9975000000E+02 -0.1099999994E+02         4
      21       1  0.2100000000E+00         1    1         1     10268  0.1333332851E+00  0.5000000030E+00  0.7221796412E+00  0.7069999993E+02  0.9975000000E+02 -0.6999999916E+01         2
      21       1  0.2100000000E+00         2    2         1     10268  0.1333332851E+00  0.5000000030E+00  0.7764609797E-01  0.7069999993E+02  0.9975000000E+02 -0.8999999895E+01         2
      21       1  0.2100000000E+00         3    3         1     29868  0.1333333000E+00  0.5000000000E+00  0.8818390000E+00  0.7069999995E+02  0.9975000000E+02 -0.1099999994E+02         4
      22       1  0.2200000000E+00         1    1         1     10268  0.1333332844E+00  0.5000000032E+00  0.7221796432E+00  0.7069999993E+02  0.9975000000E+02 -0.6999999910E+01         2
      22       1  0.2200000000E+00         2    2         1     10268  0.1333332844E+00  0.5000000032E+00  0.7764609978E-01  0.7069999993E+02  0.9975000000E+02 -0.8999999889E+01         2
      22       1  0.2200000000E+00         3    3         1     29868  0.1333333000E+00  0.5000000000E+00  0.8818390000E+00  0.7069999995E+02  0.9975000000E+02 -0.1099999994E+02         4
      23       1  0.2300000000E+00         1    1         1     10268  0.1333332836E+00  0.5000000033E+00  0.7221796451E+00  0.7069999993E+02  0.9975000000E+02 -0.6999999904E+01         2
      23       1  0.2300000000E+00         2    2         1     10268  0.1333332836E+00  0.5000000033E+00  0.7764610158E-01  0.7069999993E+02  0.9975000000E+02 -0.8999999884E+01         2
      23       1  0.2300000000E+00         3    3         1     29868  0.1333333000E+00  0.5000000000E+00  0.8818390000E+00  0.7069999995E+02  0.9975000000E+02 -0.1099999994E+02         4
      24       1  0.2400000000E+00         1    1         1     10268  0.1333332829E+00  0.5000000034E+00  0.7221796471E+00  0.7069999992E+02  0.9975000001E+02 -0.6999999898E+01         2
      24       1  0.2400000000E+00         2    2         1     10268  0.1333332829E+00  0.5000000034E+00  0.7764610339E-01  0.7069999992E+02  0.9975000001E+02 -0.8999999878E+01         2
      24       1  0.2400000000E+00         3    3         1     29868  0.1333333000E+00  0.5000000000E+00  0.8818390000E+00  0.7069999995E+02  0.9975000000E+02 -0.1099999994E+02         4
      25       1  0.2500000000E+00         1    1         1     10268  0.1333332822E+00  0.5000000036E+00  0.7221796491E+00  0.7069999992E+02  0.9975000001E+02 -0.6999999891E+01         2
      25       1  0.2500000000E+00         2    2         1     10268  0.1333332822E+00  0.5000000036E+00  0.7764610520E-01  0.7069999992E+02  0.9975000001E+02 -0.8999999872E+01         2
      25       1  0.2500000000E+00         3    3         1     29868  0.1333333000E+00  0.5000000000E+00  0.8818390000E+00  0.7069999995E+02  0.9975000000E+02 -0.1099999994E+02         4
      26       1  0.2600000000E+00         1    1         1     10268  0.1333332815E+00  0.5000000037E+00  0.7221796510E+00  0.7069999992E+02  0.9975000001E+02 -0.6999999885E+01         2
      26       1  0.2600000000E+00         2    2         1     10268  0.1333332815E+00  0.5000000037E+00  0.7764610701E-01  0.7069999992E+02  0.9975000001E+02 -0.8999999867E+01         2
      26       1  0.2600000000E+00         3    3         1     29868  0.1333333000E+00  0.5000000000E+00  0.8818390000E+00  0.7069999995E+02  0.9975000000E+02 -0.1099999994E+02         4
      27       1  0.2700000000E+00         1    1         1     10268  0.1333332808E+00  0.5000000039E+00  0.7221796530E+00  0.7069999992E+02  0.9975000001E+02 -0.6999999879E+01         2
      27       1  0.2700000000E+00         2    2         1     10268  0.1333332808E+00  0.5000000039E+00  0.7764610881E-01  0.7069999992E+02  0.9975000001E+02 -0.8999999861E+01         2
      27       1  0.2700000000E+00         3    3         1     29868  0.1333333000E+00  0.5000000000E+00  0.8818390000E+00  0.7069999995E+02  0.9975000000E+02 -0.1099999994E+02         4
      28       1  0.2800000000E+00         1    1         1     10268  0.1333332801E+00  0.5000000040E+00  0.7221796549E+00  0.7069999992E+02  0.9975000001E+02 -0.6999999873E+01         2
      28       1  0.2800000000E+00         2    2         1     10268  0.1333332801E+00  0.5000000040E+00  0.7764611062E-01  0.7069999992E+02  0.9975000001E+02 -0.8999999856E+01         2
      28       1  0.2800000000E+00         3    3         1     29868  0.1333333000E+00  0.5000000000E+00  0.8818390000E+00  0.7069999995E+02  0.9975000000E+02 -0.1099999994E+02         4
      29       1  0.2900000000E+00         1    1         1     10268  0.1333332794E+00  0.5000000042E+00  0.7221796569E+00  0.7069999992E+02  0.9975000001E+02 -0.6999999867E+01         2
      29       1  0.2900000000E+00         2    2         1     10268  0.1333332794E+00  0.5000000042E+00  0.7764611243E-01  0.7069999992E+02  0.9975000001E+02 -0.8999999850E+01         2
      29       1  0.2900000000E+00         3    3         1     29868  0.1333333000E+00  0.5000000000E+00  0.8818390000E+00  0.7069999995E+02  0.9975000000E+02 -0.1099999994E+02         4
      30       1  0.3000000000E+00         1    1         1     10268  0.1333332787E+00  0.5000000043E+00  0.7221796589E+00  0.7069999992E+02  0.9975000001E+02 -0.6999999861E+01         2
      30       1  0.3000000000E+00         2    2         1     10268  0.1333332787E+00  0.5000000043E+00  0.7764611424E-01  0.7069999992E+02  0.9975000001E+02 -0.8999999844E+01         2
      30       1  0.3000000000E+00         3    3         1     29868  0.1333333000E+00  0.5000000000E+00  0.8818390000E+00  0.7069999995E+02  0.9975000000E+02 -0.1099999994E+02         4
      31       1  0.3100000000E+00         1    1         1     10268  0.1333332780E+00  0.5000000045E+00  0.7221796608E+00  0.7069999992E+02  0.9975000001E+02 -0.6999999855E+01         2
      31       1  0.3100000000E+00         2    2         1     10268  0.1333332780E+00  0.5000000045E+00  0.7764611605E-01  0.7069999992E+02  0.9975000001E+02 -0.8999999839E+01         2
      31       1  0.3100000000E+00         3    3         1     29868  0.1333333000E+00  0.5000000000E+00  0.8818390000E+00  0.7069999995E+02  0.9975000000E+02 -0.1099999994E+02         4
      32       1  0.3200000000E+00         1    1         1     10268  0.1333332772E+00  0.5000000046E+00  0.7221796628E+00  0.7069999992E+02  0.9975000001E+02 -0.6999999849E+01         2
      32       1  0.3200000000E+00         2    2         1     10268  0.1333332772E+00  0.5000000046E+00  0.7764611785E-01  0.7069999992E+02  0.9975000001E+02 -0.8999999833E+01         2
      32       1  0.3200000000E+00         3    3         1     29868  0.1333333000E+00  0.5000000000E+00  0.8818390000E+00  0.7069999995E+02  0.9975000000E+02 -0.1099999994E+02         4
      33       1  0.3300000000E+00         1    1         1     10268  0.1333332765E+00  0.5000000047E+00  0.7221796648E+00  0.7069999991E+02  0.9975000001E+02 -0.6999999843E+01         2
      33       1  0.3300000000E+00         2    2         1     10268  0.1333332765E+00  0.5000000047E+00  0.7764611966E-01  0.7069999991E+02  0.9975000001E+02 -0.8999999828E+01         2
      33       1  0.3300000000E+00         3    3         1     29868  0.1333333000E+00  0.5000000000E+00  0.8818390000E+00  0.7069999995E+02  0.9975000000E+02 -0.1099999994E+02         4
      34       1  0.3400000000E+00         1    1         1     10268  0.1333332758E+00  0.5000000049E+00  0.7221796667E+00  0.7069999991E+02  0.9975000001E+02 -0.6999999837E+01         2
      34       1  0.3400000000E+00         2    2         1     10268  0.1333332758E+00  0.5000000049E+00  0.7764612147E-01  0.7069999991E+02  0.9975000001E+02 -0.8999999822E+01         2
      34       1  0.3400000000E+00         3    3         1     29868  0.1333333000E+00  0.5000000000E+00  0.8818390000E+00  0.7069999995E+02  0.9975000000E+02 -0.1099999994E+02         4
      35       1  0.3500000000E+00         1    1         1     10268  0.1333332751E+00  0.5000000050E+00  0.7221796687E+00  0.7069999991E+02  0.9975000001E+02 -0.6999999831E+01         2
      35       1  0.3500000000E+00         2    2         1     10268  0.1333332751E+00  0.5000000050E+00  0.7764612328E-01  0.7069999991E+02  0.9975000001E+02 -0.8999999816E+01         2
      35       1  0.3500000000E+00         3    3         1     29868  0.1333333000E+00  0.5000000000E+00  0.8818390000E+00  0.7069999995E+02  0.9975000000E+02 -0.1099999994E+02         4
      36       1  0.3600000000E+00         1    1         1     10268  0.1333332744E+00  0.5000000052E+00  0.7221796706E+00  0.7069999991E+02  0.9975000001E+02 -0.6999999824E+01         2
      36       1  0.3600000000E+00         2    2         1     10268  0.1333332744E+00  0.5000000052E+00  0.7764612509E-01  0.7069999991E+02  0.9975000001E+02 -0.8999999811E+01         2
      36       1  0.3600000000E+00         3    3         1     29868  0.1333333000E+00  0.5000000000E+00  0.8818390000E+00  0.7069999995E+02  0.9975000000E+02 -0.1099999994E+02         4
      37       1  0.3700000000E+00         1    1         1     10268  0.1333332737E+00  0.5000000053E+00  0.7221796726E+00  0.7069999991E+02  0.9975000001E+02 -0.6999999818E+01         2
      37       1  0.3700000000E+00         2    2         1     10268  0.1333332737E+00  0.5000000053E+00  0.7764612689E-01  0.7069999991E+02  0.9975000001E+02 -0.8999999805E+01         2
      37       1  0.3700000000E+00         3    3         1     29868  0.1333333000E+00  0.5000000000E+00  0.8818390000E+00  0.7069999995E+02  0.9975000000E+02 -0.1099999994E+02         4
      38       1  0.3800000000E+00         1    1         1     10268  0.1333332730E+00  0.5000000055E+00  0.7221796746E+00  0.7069999991E+02  0.9975000001E+02 -0.6999999812E+01         2
      38       1  0.3800000000E+00         2    2         1     10268  0.1333332730E+00  0.5000000055E+00  0.7764612870E-01  0.7069999991E+02  0.9975000001E+02 -0.8999999800E+01         2
      38       1  0.3800000000E+00         3    3         1     29868  0.1333333000E+00  0.5000000000E+00  0.8818390000E+00  0.7069999995E+02  0.9975000000E+02 -0.1099999994E+02         4
      39       1  0.3900000000E+00         1    1         1     10268  0.1333332723E+00  0.5000000056E+00  0.7221796765E+00  0.7069999991E+02  0.9975000001E+02 -0.6999999806E+01         2
      39       1  0.3900000000E+00         2    2         1     10268  0.1333332723E+00  0.5000000056E+00  0.7764613051E-01  0.7069999991E+02  0.9975000001E+02 -0.8999999794E+01         2
      39       1  0.3900000000E+00         3    3         1     29868  0.1333333000E+00  0.5000000000E+00  0.8818390000E+00  0.7069999995E+02  0.9975000000E+02 -0.1099999994E+02         4
      40       1  0.4000000000E+00         1    1         1     10268  0.1333332716E+00  0.5000000057E+00  0.7221796785E+00  0.7069999991E+02  0.9975000001E+02 -0.6999999800E+01         2
      40       1  0.4000000000E+00         2    2         1     10268  0.1333332716E+00  0.5000000057E+00  0.7764613232E-01  0.7069999991E+02  0.9975000001E+02 -0.8999999788E+01         2
      40       1  0.4000000000E+00         3    3         1     29868  0.1333333000E+00  0.5000000000E+00  0.8818390000E+00  0.7069999995E+02  0.9975000000E+02 -0.1099999994E+02         4
      41       1  0.4100000000E+00         1    1         1     10268  0.1333332708E+00  0.5000000059E+00  0.7221796805E+00  0.7069999991E+02  0.9975000001E+02 -0.6999999794E+01         2
      41       1  0.4100000000E+00         2    2         1     10268  0.1333332708E+00  0.5000000059E+00  0.7764613413E-01  0.7069999991E+02  0.9975000001E+02 -0.8999999783E+01         2
      41       1  0.4100000000E+00         3    3         1     29868  0.1333333000E+00  0.5000000000E+00  0.8818390000E+00  0.7069999995E+02  0.9975000000E+02 -0.1099999994E+02         4
      42       1  0.4200000000E+00         1    1         1     10268  0.1333332701E+00  0.5000000060E+00  0.7221796824E+00  0.7069999991E+02  0.9975000001E+02 -0.6999999788E+01         2
      42       1  0.4200000000E+00         2    2         1     10268  0.1333332701E+00  0.5000000060E+00  0.7764613593E-01  0.7069999991E+02  0.9975000001E+02 -0.8999999777E+01         2
      42       1  0.4200000000E+00         3    3         1     29868  0.1333333000E+00  0.5000000000E+00  0.8818390000E+00  0.7069999995E+02  0.9975000000E+02 -0.1099999994E+02         4
      43       1  0.4300000000E+00         1    1         1     10268  0.1333332694E+00  0.5000000062E+00  0.7221796844E+00  0.7069999990E+02  0.9975000001E+02 -0.6999999782E+01         2
      43       1  0.4300000000E+00         2    2         1     10268  0.1333332694E+00  0.5000000062E+00  0.7764613774E-01  0.7069999990E+02  0.9975000001E+02 -0.8999999771E+01         2
      43       1  0.4300000000E+00         3    3         1     29868  0.1333332999E+00  0.5000000000E+00  0.8818390000E+00  0.7069999995E+02  0.9975000000E+02 -0.1099999994E+02         4
      44       1  0.4400000000E+00         1    1         1     10268  0.1333332687E+00  0.5000000063E+00  0.7221796863E+00  0.7069999990E+02  0.9975000001E+02 -0.6999999776E+01         2
      44       1  0.4400000000E+00         2    2         1     10268  0.1333332687E+00  0.5000000063E+00  0.7764613955E-01  0.7069999990E+02  0.9975000001E+02 -0.8999999766E+01         2
      44       1  0.4400000000E+00         3    3         1     29868  0.1333332999E+00  0.5000000000E+00  0.8818390000E+00  0.7069999995E+02  0.9975000000E+02 -0.1099999994E+02         4
      45       1  0.4500000000E+00         1    1         1     10268  0.1333332680E+00  0.5000000065E+00  0.7221796883E+00  0.7069999990E+02  0.9975000001E+02 -0.6999999770E+01         2
      45       1  0.4500000000E+00         2    2         1     10268  0.1333332680E+00  0.5000000065E+00  0.7764614136E-01  0.7069999990E+02  0.9975000001E+02 -0.8999999760E+01         2
      45       1  0.4500000000E+00         3    3         1     29868  0.1333332999E+00  0.5000000000E+00  0.8818390000E+00  0.7069999995E+02  0.9975000000E+02 -0.1099999994E+02         4
      46       1  0.4600000000E+00         1    1         1     10268  0.1333332673E+00  0.5000000066E+00  0.7221796903E+00  0.7069999990E+02  0.9975000001E+02 -0.6999999764E+01         2
      46       1  0.4600000000E+00         2    2         1     10268  0.1333332673E+00  0.5000000066E+00  0.7764614317E-01  0.7069999990E+02  0.9975000001E+02 -0.8999999755E+01         2
      46       1  0.4600000000E+00         3    3         1     29868  0.1333332999E+00  0.5000000000E+00  0.8818390000E+00  0.7069999995E+02  0.9975000000E+02 -0.1099999994E+02         4
      47       1  0.4700000000E+00         1    1         1     10268  0.1333332666E+00  0.5000000068E+00  0.7221796922E+00  0.7069999990E+02  0.9975000001E+02 -0.6999999757E+01         2
      47       1  0.4700000000E+00         2    2         1     10268  0.1333332666E+00  0.5000000068E+00  0.7764614497E-01  0.7069999990E+02  0.9975000001E+02 -0.8999999749E+01         2
      47       1  0.4700000000E+00         3    3         1     29868  0.1333332999E+00  0.5000000000E+00  0.8818390000E+00  0.7069999995E+02  0.9975000000E+02 -0.1099999994E+02         4
      48       1  0.4800000000E+00         1    1         1     10268  0.1333332659E+00  0.5000000069E+00  0.7221796942E+00  0.7069999990E+02  0.9975000001E+02 -0.6999999751E+01         2
      48       1  0.4800000000E+00         2    2         1     10268  0.1333332659E+00  0.5000000069E+00  0.7764614678E-01  0.7069999990E+02  0.9975000001E+02 -0.8999999743E+01         2
      48       1  0.4800000000E+00         3    3         1     29868  0.1333332999E+00  0.5000000000E+00  0.8818390000E+00  0.7069999995E+02  0.9975000000E+02 -0.1099999994E+02         4
      49       1  0.4900000000E+00         1    1         1     10268  0.1333332652E+00  0.5000000070E+00  0.7221796962E+00  0.7069999990E+02  0.9975000001E+02 -0.6999999745E+01         2
      49       1  0.4900000000E+00         2    2         1     10268  0.1333332652E+00  0.5000000070E+00  0.7764614859E-01  0.7069999990E+02  0.9975000001E+02 -0.8999999738E+01         2
      49       1  0.4900000000E+00         3    3         1     29868  0.1333332999E+00  0.5000000000E+00  0.8818390000E+00  0.7069999995E+02  0.9975000000E+02 -0.1099999994E+02         4
      50       1  0.5000000000E+00         1    1         1     10268  0.1333332644E+00  0.5000000072E+00  0.7221796981E+00  0.7069999990E+02  0.9975000001E+02 -0.6999999739E+01         2
      50       1  0.5000000000E+00         2    2         1     10268  0.1333332644E+00  0.5000000072E+00  0.7764615040E-01  0.7069999990E+02  0.9975000001E+02 -0.8999999732E+01         2
      50       1  0.5000000000E+00         3    3         1     29868  0.1333332999E+00  0.5000000000E+00  0.8818390000E+00  0.7069999995E+02  0.9975000000E+02 -0.1099999994E+02         4
      51       1  0.5100000000E+00         1    1         1     10268  0.1333332637E+00  0.5000000073E+00  0.7221797001E+00  0.7069999990E+02  0.9975000001E+02 -0.6999999733E+01         2
      51       1  0.5100000000E+00         2    2         1     10268  0.1333332637E+00  0.5000000073E+00  0.7764615221E-01  0.7069999990E+02  0.9975000001E+02 -0.8999999727E+01         2
      51       1  0.5100000000E+00         3    3         1     29868  0.1333332999E+00  0.5000000000E+00  0.8818390000E+00  0.7069999995E+02  0.9975000000E+02 -0.1099999994E+02         4
      52       1  0.5200000000E+00         1    1         1     10268  0.1333332630E+00  0.5000000075E+00  0.7221797020E+00  0.7069999989E+02  0.9975000001E+02 -0.6999999727E+01         2
      52       1  0.5200000000E+00         2    2         1     10268  0.1333332630E+00  0.5000000075E+00  0.7764615401E-01  0.7069999989E+02  0.9975000001E+02 -0.8999999721E+01         2