# File generated by Flopy version 3.8.2 on 11/19/2024 at 09:20:51.
BEGIN options
END options

BEGIN packages
  CHD6  test.chd  chd_0
  DIS6  test.dis  dis
  IC6  test.ic  ic
  OC6  test.oc  oc
  NPF6  test.npf  npf
END packages

