# File generated by Flopy version 3.8.2 on 12/04/2024 at 16:20:52.
BEGIN options
END options

BEGIN griddata
  strt
    CONSTANT       1.00000000
END griddata

