# File generated by Flopy version 3.9.1 on 01/20/2025 at 21:52:38.
BEGIN options
END options

BEGIN griddata
  strt
    CONSTANT       1.00000000
END griddata

