# MPSIM package for MODPATH 7 generated by Flopy 3.4.1
test_mp_forward.mpnam
test_mp_forward.mplst
4 2 1 1 0 0
test_mp_forward.mpend
test_mp_forward.mppth
test_mp_forward.timeseries
0
1
0
2
1
100 0.01
1
1
3
PG1
1
0.0
INTERNAL
1
1
1 0
        30         4        48       0.1333333             0.5    0.0001017255               0         0
PG1
1
0.0
INTERNAL
1
1
1 0
        34         4        48       0.1333333             0.5       0.6667599               0         0
PG1
1
0.0
INTERNAL
1
1
1 0
        37         4        48       0.1333333             0.5       0.3334181               0         0
