# File generated by Flopy version 3.4.1 on 01/08/2025 at 09:33:49.
BEGIN options
  SAVE_FLOWS
END options

BEGIN dimensions
  MAXBOUND  8400
END dimensions

BEGIN period  1
  11 1 1     100.00000000
  11 2 1     100.00000000
  11 3 1     100.00000000
  11 4 1     100.00000000
  11 5 1     100.00000000
  11 6 1     100.00000000
  11 7 1     100.00000000
  11 8 1     100.00000000
  11 9 1     100.00000000
  11 10 1     100.00000000
  11 11 1     100.00000000
  11 12 1     100.00000000
  11 13 1     100.00000000
  11 14 1     100.00000000
  11 15 1     100.00000000
  11 16 1     100.00000000
  11 17 1     100.00000000
  11 18 1     100.00000000
  11 19 1     100.00000000
  11 20 1     100.00000000
  11 21 1     100.00000000
  11 22 1     100.00000000
  11 23 1     100.00000000
  11 24 1     100.00000000
  11 25 1     100.00000000
  11 26 1     100.00000000
  11 27 1     100.00000000
  11 28 1     100.00000000
  11 29 1     100.00000000
  11 30 1     100.00000000
  11 31 1     100.00000000
  11 32 1     100.00000000
  11 33 1     100.00000000
  11 34 1     100.00000000
  11 35 1     100.00000000
  11 36 1     100.00000000
  11 37 1     100.00000000
  11 38 1     100.00000000
  11 39 1     100.00000000
  11 40 1     100.00000000
  11 41 1     100.00000000
  11 42 1     100.00000000
  11 43 1     100.00000000
  11 44 1     100.00000000
  11 45 1     100.00000000
  11 46 1     100.00000000
  11 47 1     100.00000000
  11 48 1     100.00000000
  11 49 1     100.00000000
  11 50 1     100.00000000
  11 51 1     100.00000000
  11 52 1     100.00000000
  11 53 1     100.00000000
  11 54 1     100.00000000
  11 55 1     100.00000000
  11 56 1     100.00000000
  11 57 1     100.00000000
  11 58 1     100.00000000
  11 59 1     100.00000000
  11 60 1     100.00000000
  11 61 1     100.00000000
  11 62 1     100.00000000
  11 63 1     100.00000000
  11 64 1     100.00000000
  11 65 1     100.00000000
  11 66 1     100.00000000
  11 67 1     100.00000000
  11 68 1     100.00000000
  11 69 1     100.00000000
  11 70 1     100.00000000
  12 1 1     100.00000000
  12 2 1     100.00000000
  12 3 1     100.00000000
  12 4 1     100.00000000
  12 5 1     100.00000000
  12 6 1     100.00000000
  12 7 1     100.00000000
  12 8 1     100.00000000
  12 9 1     100.00000000
  12 10 1     100.00000000
  12 11 1     100.00000000
  12 12 1     100.00000000
  12 13 1     100.00000000
  12 14 1     100.00000000
  12 15 1     100.00000000
  12 16 1     100.00000000
  12 17 1     100.00000000
  12 18 1     100.00000000
  12 19 1     100.00000000
  12 20 1     100.00000000
  12 21 1     100.00000000
  12 22 1     100.00000000
  12 23 1     100.00000000
  12 24 1     100.00000000
  12 25 1     100.00000000
  12 26 1     100.00000000
  12 27 1     100.00000000
  12 28 1     100.00000000
  12 29 1     100.00000000
  12 30 1     100.00000000
  12 31 1     100.00000000
  12 32 1     100.00000000
  12 33 1     100.00000000
  12 34 1     100.00000000
  12 35 1     100.00000000
  12 36 1     100.00000000
  12 37 1     100.00000000
  12 38 1     100.00000000
  12 39 1     100.00000000
  12 40 1     100.00000000
  12 41 1     100.00000000
  12 42 1     100.00000000
  12 43 1     100.00000000
  12 44 1     100.00000000
  12 45 1     100.00000000
  12 46 1     100.00000000
  12 47 1     100.00000000
  12 48 1     100.00000000
  12 49 1     100.00000000
  12 50 1     100.00000000
  12 51 1     100.00000000
  12 52 1     100.00000000
  12 53 1     100.00000000
  12 54 1     100.00000000
  12 55 1     100.00000000
  12 56 1     100.00000000
  12 57 1     100.00000000
  12 58 1     100.00000000
  12 59 1     100.00000000
  12 60 1     100.00000000
  12 61 1     100.00000000
  12 62 1     100.00000000
  12 63 1     100.00000000
  12 64 1     100.00000000
  12 65 1     100.00000000
  12 66 1     100.00000000
  12 67 1     100.00000000
  12 68 1     100.00000000
  12 69 1     100.00000000
  12 70 1     100.00000000
  13 1 1     100.00000000
  13 2 1     100.00000000
  13 3 1     100.00000000
  13 4 1     100.00000000
  13 5 1     100.00000000
  13 6 1     100.00000000
  13 7 1     100.00000000
  13 8 1     100.00000000
  13 9 1     100.00000000
  13 10 1     100.00000000
  13 11 1     100.00000000
  13 12 1     100.00000000
  13 13 1     100.00000000
  13 14 1     100.00000000
  13 15 1     100.00000000
  13 16 1     100.00000000
  13 17 1     100.00000000
  13 18 1     100.00000000
  13 19 1     100.00000000
  13 20 1     100.00000000
  13 21 1     100.00000000
  13 22 1     100.00000000
  13 23 1     100.00000000
  13 24 1     100.00000000
  13 25 1     100.00000000
  13 26 1     100.00000000
  13 27 1     100.00000000
  13 28 1     100.00000000
  13 29 1     100.00000000
  13 30 1     100.00000000
  13 31 1     100.00000000
  13 32 1     100.00000000
  13 33 1     100.00000000
  13 34 1     100.00000000
  13 35 1     100.00000000
  13 36 1     100.00000000
  13 37 1     100.00000000
  13 38 1     100.00000000
  13 39 1     100.00000000
  13 40 1     100.00000000
  13 41 1     100.00000000
  13 42 1     100.00000000
  13 43 1     100.00000000
  13 44 1     100.00000000
  13 45 1     100.00000000
  13 46 1     100.00000000
  13 47 1     100.00000000
  13 48 1     100.00000000
  13 49 1     100.00000000
  13 50 1     100.00000000
  13 51 1     100.00000000
  13 52 1     100.00000000
  13 53 1     100.00000000
  13 54 1     100.00000000
  13 55 1     100.00000000
  13 56 1     100.00000000
  13 57 1     100.00000000
  13 58 1     100.00000000
  13 59 1     100.00000000
  13 60 1     100.00000000
  13 61 1     100.00000000
  13 62 1     100.00000000
  13 63 1     100.00000000
  13 64 1     100.00000000
  13 65 1     100.00000000
  13 66 1     100.00000000
  13 67 1     100.00000000
  13 68 1     100.00000000
  13 69 1     100.00000000
  13 70 1     100.00000000
  14 1 1     100.00000000
  14 2 1     100.00000000
  14 3 1     100.00000000
  14 4 1     100.00000000
  14 5 1     100.00000000
  14 6 1     100.00000000
  14 7 1     100.00000000
  14 8 1     100.00000000
  14 9 1     100.00000000
  14 10 1     100.00000000
  14 11 1     100.00000000
  14 12 1     100.00000000
  14 13 1     100.00000000
  14 14 1     100.00000000
  14 15 1     100.00000000
  14 16 1     100.00000000
  14 17 1     100.00000000
  14 18 1     100.00000000
  14 19 1     100.00000000
  14 20 1     100.00000000
  14 21 1     100.00000000
  14 22 1     100.00000000
  14 23 1     100.00000000
  14 24 1     100.00000000
  14 25 1     100.00000000
  14 26 1     100.00000000
  14 27 1     100.00000000
  14 28 1     100.00000000
  14 29 1     100.00000000
  14 30 1     100.00000000
  14 31 1     100.00000000
  14 32 1     100.00000000
  14 33 1     100.00000000
  14 34 1     100.00000000
  14 35 1     100.00000000
  14 36 1     100.00000000
  14 37 1     100.00000000
  14 38 1     100.00000000
  14 39 1     100.00000000
  14 40 1     100.00000000
  14 41 1     100.00000000
  14 42 1     100.00000000
  14 43 1     100.00000000
  14 44 1     100.00000000
  14 45 1     100.00000000
  14 46 1     100.00000000
  14 47 1     100.00000000
  14 48 1     100.00000000
  14 49 1     100.00000000
  14 50 1     100.00000000
  14 51 1     100.00000000
  14 52 1     100.00000000
  14 53 1     100.00000000
  14 54 1     100.00000000
  14 55 1     100.00000000
  14 56 1     100.00000000
  14 57 1     100.00000000
  14 58 1     100.00000000
  14 59 1     100.00000000
  14 60 1     100.00000000
  14 61 1     100.00000000
  14 62 1     100.00000000
  14 63 1     100.00000000
  14 64 1     100.00000000
  14 65 1     100.00000000
  14 66 1     100.00000000
  14 67 1     100.00000000
  14 68 1     100.00000000
  14 69 1     100.00000000
  14 70 1     100.00000000
  15 1 1     100.00000000
  15 2 1     100.00000000
  15 3 1     100.00000000
  15 4 1     100.00000000
  15 5 1     100.00000000
  15 6 1     100.00000000
  15 7 1     100.00000000
  15 8 1     100.00000000
  15 9 1     100.00000000
  15 10 1     100.00000000
  15 11 1     100.00000000
  15 12 1     100.00000000
  15 13 1     100.00000000
  15 14 1     100.00000000
  15 15 1     100.00000000
  15 16 1     100.00000000
  15 17 1     100.00000000
  15 18 1     100.00000000
  15 19 1     100.00000000
  15 20 1     100.00000000
  15 21 1     100.00000000
  15 22 1     100.00000000
  15 23 1     100.00000000
  15 24 1     100.00000000
  15 25 1     100.00000000
  15 26 1     100.00000000
  15 27 1     100.00000000
  15 28 1     100.00000000
  15 29 1     100.00000000
  15 30 1     100.00000000
  15 31 1     100.00000000
  15 32 1     100.00000000
  15 33 1     100.00000000
  15 34 1     100.00000000
  15 35 1     100.00000000
  15 36 1     100.00000000
  15 37 1     100.00000000
  15 38 1     100.00000000
  15 39 1     100.00000000
  15 40 1     100.00000000
  15 41 1     100.00000000
  15 42 1     100.00000000
  15 43 1     100.00000000
  15 44 1     100.00000000
  15 45 1     100.00000000
  15 46 1     100.00000000
  15 47 1     100.00000000
  15 48 1     100.00000000
  15 49 1     100.00000000
  15 50 1     100.00000000
  15 51 1     100.00000000
  15 52 1     100.00000000
  15 53 1     100.00000000
  15 54 1     100.00000000
  15 55 1     100.00000000
  15 56 1     100.00000000
  15 57 1     100.00000000
  15 58 1     100.00000000
  15 59 1     100.00000000
  15 60 1     100.00000000
  15 61 1     100.00000000
  15 62 1     100.00000000
  15 63 1     100.00000000
  15 64 1     100.00000000
  15 65 1     100.00000000
  15 66 1     100.00000000
  15 67 1     100.00000000
  15 68 1     100.00000000
  15 69 1     100.00000000
  15 70 1     100.00000000
  16 1 1     100.00000000
  16 2 1     100.00000000
  16 3 1     100.00000000
  16 4 1     100.00000000
  16 5 1     100.00000000
  16 6 1     100.00000000
  16 7 1     100.00000000
  16 8 1     100.00000000
  16 9 1     100.00000000
  16 10 1     100.00000000
  16 11 1     100.00000000
  16 12 1     100.00000000
  16 13 1     100.00000000
  16 14 1     100.00000000
  16 15 1     100.00000000
  16 16 1     100.00000000
  16 17 1     100.00000000
  16 18 1     100.00000000
  16 19 1     100.00000000
  16 20 1     100.00000000
  16 21 1     100.00000000
  16 22 1     100.00000000
  16 23 1     100.00000000
  16 24 1     100.00000000
  16 25 1     100.00000000
  16 26 1     100.00000000
  16 27 1     100.00000000
  16 28 1     100.00000000
  16 29 1     100.00000000
  16 30 1     100.00000000
  16 31 1     100.00000000
  16 32 1     100.00000000
  16 33 1     100.00000000
  16 34 1     100.00000000
  16 35 1     100.00000000
  16 36 1     100.00000000
  16 37 1     100.00000000
  16 38 1     100.00000000
  16 39 1     100.00000000
  16 40 1     100.00000000
  16 41 1     100.00000000
  16 42 1     100.00000000
  16 43 1     100.00000000
  16 44 1     100.00000000
  16 45 1     100.00000000
  16 46 1     100.00000000
  16 47 1     100.00000000
  16 48 1     100.00000000
  16 49 1     100.00000000
  16 50 1     100.00000000
  16 51 1     100.00000000
  16 52 1     100.00000000
  16 53 1     100.00000000
  16 54 1     100.00000000
  16 55 1     100.00000000
  16 56 1     100.00000000
  16 57 1     100.00000000
  16 58 1     100.00000000
  16 59 1     100.00000000
  16 60 1     100.00000000
  16 61 1     100.00000000
  16 62 1     100.00000000
  16 63 1     100.00000000
  16 64 1     100.00000000
  16 65 1     100.00000000
  16 66 1     100.00000000
  16 67 1     100.00000000
  16 68 1     100.00000000
  16 69 1     100.00000000
  16 70 1     100.00000000
  17 1 1     100.00000000
  17 2 1     100.00000000
  17 3 1     100.00000000
  17 4 1     100.00000000
  17 5 1     100.00000000
  17 6 1     100.00000000
  17 7 1     100.00000000
  17 8 1     100.00000000
  17 9 1     100.00000000
  17 10 1     100.00000000
  17 11 1     100.00000000
  17 12 1     100.00000000
  17 13 1     100.00000000
  17 14 1     100.00000000
  17 15 1     100.00000000
  17 16 1     100.00000000
  17 17 1     100.00000000
  17 18 1     100.00000000
  17 19 1     100.00000000
  17 20 1     100.00000000
  17 21 1     100.00000000
  17 22 1     100.00000000
  17 23 1     100.00000000
  17 24 1     100.00000000
  17 25 1     100.00000000
  17 26 1     100.00000000
  17 27 1     100.00000000
  17 28 1     100.00000000
  17 29 1     100.00000000
  17 30 1     100.00000000
  17 31 1     100.00000000
  17 32 1     100.00000000
  17 33 1     100.00000000
  17 34 1     100.00000000
  17 35 1     100.00000000
  17 36 1     100.00000000
  17 37 1     100.00000000
  17 38 1     100.00000000
  17 39 1     100.00000000
  17 40 1     100.00000000
  17 41 1     100.00000000
  17 42 1     100.00000000
  17 43 1     100.00000000
  17 44 1     100.00000000
  17 45 1     100.00000000
  17 46 1     100.00000000
  17 47 1     100.00000000
  17 48 1     100.00000000
  17 49 1     100.00000000
  17 50 1     100.00000000
  17 51 1     100.00000000
  17 52 1     100.00000000
  17 53 1     100.00000000
  17 54 1     100.00000000
  17 55 1     100.00000000
  17 56 1     100.00000000
  17 57 1     100.00000000
  17 58 1     100.00000000
  17 59 1     100.00000000
  17 60 1     100.00000000
  17 61 1     100.00000000
  17 62 1     100.00000000
  17 63 1     100.00000000
  17 64 1     100.00000000
  17 65 1     100.00000000
  17 66 1     100.00000000
  17 67 1     100.00000000
  17 68 1     100.00000000
  17 69 1     100.00000000
  17 70 1     100.00000000
  18 1 1     100.00000000
  18 2 1     100.00000000
  18 3 1     100.00000000
  18 4 1     100.00000000
  18 5 1     100.00000000
  18 6 1     100.00000000
  18 7 1     100.00000000
  18 8 1     100.00000000
  18 9 1     100.00000000
  18 10 1     100.00000000
  18 11 1     100.00000000
  18 12 1     100.00000000
  18 13 1     100.00000000
  18 14 1     100.00000000
  18 15 1     100.00000000
  18 16 1     100.00000000
  18 17 1     100.00000000
  18 18 1     100.00000000
  18 19 1     100.00000000
  18 20 1     100.00000000
  18 21 1     100.00000000
  18 22 1     100.00000000
  18 23 1     100.00000000
  18 24 1     100.00000000
  18 25 1     100.00000000
  18 26 1     100.00000000
  18 27 1     100.00000000
  18 28 1     100.00000000
  18 29 1     100.00000000
  18 30 1     100.00000000
  18 31 1     100.00000000
  18 32 1     100.00000000
  18 33 1     100.00000000
  18 34 1     100.00000000
  18 35 1     100.00000000
  18 36 1     100.00000000
  18 37 1     100.00000000
  18 38 1     100.00000000
  18 39 1     100.00000000
  18 40 1     100.00000000
  18 41 1     100.00000000
  18 42 1     100.00000000
  18 43 1     100.00000000
  18 44 1     100.00000000
  18 45 1     100.00000000
  18 46 1     100.00000000
  18 47 1     100.00000000
  18 48 1     100.00000000
  18 49 1     100.00000000
  18 50 1     100.00000000
  18 51 1     100.00000000
  18 52 1     100.00000000
  18 53 1     100.00000000
  18 54 1     100.00000000
  18 55 1     100.00000000
  18 56 1     100.00000000
  18 57 1     100.00000000
  18 58 1     100.00000000
  18 59 1     100.00000000
  18 60 1     100.00000000
  18 61 1     100.00000000
  18 62 1     100.00000000
  18 63 1     100.00000000
  18 64 1     100.00000000
  18 65 1     100.00000000
  18 66 1     100.00000000
  18 67 1     100.00000000
  18 68 1     100.00000000
  18 69 1     100.00000000
  18 70 1     100.00000000
  19 1 1     100.00000000
  19 2 1     100.00000000
  19 3 1     100.00000000
  19 4 1     100.00000000
  19 5 1     100.00000000
  19 6 1     100.00000000
  19 7 1     100.00000000
  19 8 1     100.00000000
  19 9 1     100.00000000
  19 10 1     100.00000000
  19 11 1     100.00000000
  19 12 1     100.00000000
  19 13 1     100.00000000
  19 14 1     100.00000000
  19 15 1     100.00000000
  19 16 1     100.00000000
  19 17 1     100.00000000
  19 18 1     100.00000000
  19 19 1     100.00000000
  19 20 1     100.00000000
  19 21 1     100.00000000
  19 22 1     100.00000000
  19 23 1     100.00000000
  19 24 1     100.00000000
  19 25 1     100.00000000
  19 26 1     100.00000000
  19 27 1     100.00000000
  19 28 1     100.00000000
  19 29 1     100.00000000
  19 30 1     100.00000000
  19 31 1     100.00000000
  19 32 1     100.00000000
  19 33 1     100.00000000
  19 34 1     100.00000000
  19 35 1     100.00000000
  19 36 1     100.00000000
  19 37 1     100.00000000
  19 38 1     100.00000000
  19 39 1     100.00000000
  19 40 1     100.00000000
  19 41 1     100.00000000
  19 42 1     100.00000000
  19 43 1     100.00000000
  19 44 1     100.00000000
  19 45 1     100.00000000
  19 46 1     100.00000000
  19 47 1     100.00000000
  19 48 1     100.00000000
  19 49 1     100.00000000
  19 50 1     100.00000000
  19 51 1     100.00000000
  19 52 1     100.00000000
  19 53 1     100.00000000
  19 54 1     100.00000000
  19 55 1     100.00000000
  19 56 1     100.00000000
  19 57 1     100.00000000
  19 58 1     100.00000000
  19 59 1     100.00000000
  19 60 1     100.00000000
  19 61 1     100.00000000
  19 62 1     100.00000000
  19 63 1     100.00000000
  19 64 1     100.00000000
  19 65 1     100.00000000
  19 66 1     100.00000000
  19 67 1     100.00000000
  19 68 1     100.00000000
  19 69 1     100.00000000
  19 70 1     100.00000000
  20 1 1     100.00000000
  20 2 1     100.00000000
  20 3 1     100.00000000
  20 4 1     100.00000000
  20 5 1     100.00000000
  20 6 1     100.00000000
  20 7 1     100.00000000
  20 8 1     100.00000000
  20 9 1     100.00000000
  20 10 1     100.00000000
  20 11 1     100.00000000
  20 12 1     100.00000000
  20 13 1     100.00000000
  20 14 1     100.00000000
  20 15 1     100.00000000
  20 16 1     100.00000000
  20 17 1     100.00000000
  20 18 1     100.00000000
  20 19 1     100.00000000
  20 20 1     100.00000000
  20 21 1     100.00000000
  20 22 1     100.00000000
  20 23 1     100.00000000
  20 24 1     100.00000000
  20 25 1     100.00000000
  20 26 1     100.00000000
  20 27 1     100.00000000
  20 28 1     100.00000000
  20 29 1     100.00000000
  20 30 1     100.00000000
  20 31 1     100.00000000
  20 32 1     100.00000000
  20 33 1     100.00000000
  20 34 1     100.00000000
  20 35 1     100.00000000
  20 36 1     100.00000000
  20 37 1     100.00000000
  20 38 1     100.00000000
  20 39 1     100.00000000
  20 40 1     100.00000000
  20 41 1     100.00000000
  20 42 1     100.00000000
  20 43 1     100.00000000
  20 44 1     100.00000000
  20 45 1     100.00000000
  20 46 1     100.00000000
  20 47 1     100.00000000
  20 48 1     100.00000000
  20 49 1     100.00000000
  20 50 1     100.00000000
  20 51 1     100.00000000
  20 52 1     100.00000000
  20 53 1     100.00000000
  20 54 1     100.00000000
  20 55 1     100.00000000
  20 56 1     100.00000000
  20 57 1     100.00000000
  20 58 1     100.00000000
  20 59 1     100.00000000
  20 60 1     100.00000000
  20 61 1     100.00000000
  20 62 1     100.00000000
  20 63 1     100.00000000
  20 64 1     100.00000000
  20 65 1     100.00000000
  20 66 1     100.00000000
  20 67 1     100.00000000
  20 68 1     100.00000000
  20 69 1     100.00000000
  20 70 1     100.00000000
  21 1 1     100.00000000
  21 2 1     100.00000000
  21 3 1     100.00000000
  21 4 1     100.00000000
  21 5 1     100.00000000
  21 6 1     100.00000000
  21 7 1     100.00000000
  21 8 1     100.00000000
  21 9 1     100.00000000
  21 10 1     100.00000000
  21 11 1     100.00000000
  21 12 1     100.00000000
  21 13 1     100.00000000
  21 14 1     100.00000000
  21 15 1     100.00000000
  21 16 1     100.00000000
  21 17 1     100.00000000
  21 18 1     100.00000000
  21 19 1     100.00000000
  21 20 1     100.00000000
  21 21 1     100.00000000
  21 22 1     100.00000000
  21 23 1     100.00000000
  21 24 1     100.00000000
  21 25 1     100.00000000
  21 26 1     100.00000000
  21 27 1     100.00000000
  21 28 1     100.00000000
  21 29 1     100.00000000
  21 30 1     100.00000000
  21 31 1     100.00000000
  21 32 1     100.00000000
  21 33 1     100.00000000
  21 34 1     100.00000000
  21 35 1     100.00000000
  21 36 1     100.00000000
  21 37 1     100.00000000
  21 38 1     100.00000000
  21 39 1     100.00000000
  21 40 1     100.00000000
  21 41 1     100.00000000
  21 42 1     100.00000000
  21 43 1     100.00000000
  21 44 1     100.00000000
  21 45 1     100.00000000
  21 46 1     100.00000000
  21 47 1     100.00000000
  21 48 1     100.00000000
  21 49 1     100.00000000
  21 50 1     100.00000000
  21 51 1     100.00000000
  21 52 1     100.00000000
  21 53 1     100.00000000
  21 54 1     100.00000000
  21 55 1     100.00000000
  21 56 1     100.00000000
  21 57 1     100.00000000
  21 58 1     100.00000000
  21 59 1     100.00000000
  21 60 1     100.00000000
  21 61 1     100.00000000
  21 62 1     100.00000000
  21 63 1     100.00000000
  21 64 1     100.00000000
  21 65 1     100.00000000
  21 66 1     100.00000000
  21 67 1     100.00000000
  21 68 1     100.00000000
  21 69 1     100.00000000
  21 70 1     100.00000000
  22 1 1     100.00000000
  22 2 1     100.00000000
  22 3 1     100.00000000
  22 4 1     100.00000000
  22 5 1     100.00000000
  22 6 1     100.00000000
  22 7 1     100.00000000
  22 8 1     100.00000000
  22 9 1     100.00000000
  22 10 1     100.00000000
  22 11 1     100.00000000
  22 12 1     100.00000000
  22 13 1     100.00000000
  22 14 1     100.00000000
  22 15 1     100.00000000
  22 16 1     100.00000000
  22 17 1     100.00000000
  22 18 1     100.00000000
  22 19 1     100.00000000
  22 20 1     100.00000000
  22 21 1     100.00000000
  22 22 1     100.00000000
  22 23 1     100.00000000
  22 24 1     100.00000000
  22 25 1     100.00000000
  22 26 1     100.00000000
  22 27 1     100.00000000
  22 28 1     100.00000000
  22 29 1     100.00000000
  22 30 1     100.00000000
  22 31 1     100.00000000
  22 32 1     100.00000000
  22 33 1     100.00000000
  22 34 1     100.00000000
  22 35 1     100.00000000
  22 36 1     100.00000000
  22 37 1     100.00000000
  22 38 1     100.00000000
  22 39 1     100.00000000
  22 40 1     100.00000000
  22 41 1     100.00000000
  22 42 1     100.00000000
  22 43 1     100.00000000
  22 44 1     100.00000000
  22 45 1     100.00000000
  22 46 1     100.00000000
  22 47 1     100.00000000
  22 48 1     100.00000000
  22 49 1     100.00000000
  22 50 1     100.00000000
  22 51 1     100.00000000
  22 52 1     100.00000000
  22 53 1     100.00000000
  22 54 1     100.00000000
  22 55 1     100.00000000
  22 56 1     100.00000000
  22 57 1     100.00000000
  22 58 1     100.00000000
  22 59 1     100.00000000
  22 60 1     100.00000000
  22 61 1     100.00000000
  22 62 1     100.00000000
  22 63 1     100.00000000
  22 64 1     100.00000000
  22 65 1     100.00000000
  22 66 1     100.00000000
  22 67 1     100.00000000
  22 68 1     100.00000000
  22 69 1     100.00000000
  22 70 1     100.00000000
  23 1 1     100.00000000
  23 2 1     100.00000000
  23 3 1     100.00000000
  23 4 1     100.00000000
  23 5 1     100.00000000
  23 6 1     100.00000000
  23 7 1     100.00000000
  23 8 1     100.00000000
  23 9 1     100.00000000
  23 10 1     100.00000000
  23 11 1     100.00000000
  23 12 1     100.00000000
  23 13 1     100.00000000
  23 14 1     100.00000000
  23 15 1     100.00000000
  23 16 1     100.00000000
  23 17 1     100.00000000
  23 18 1     100.00000000
  23 19 1     100.00000000
  23 20 1     100.00000000
  23 21 1     100.00000000
  23 22 1     100.00000000
  23 23 1     100.00000000
  23 24 1     100.00000000
  23 25 1     100.00000000
  23 26 1     100.00000000
  23 27 1     100.00000000
  23 28 1     100.00000000
  23 29 1     100.00000000
  23 30 1     100.00000000
  23 31 1     100.00000000
  23 32 1     100.00000000
  23 33 1     100.00000000
  23 34 1     100.00000000
  23 35 1     100.00000000
  23 36 1     100.00000000
  23 37 1     100.00000000
  23 38 1     100.00000000
  23 39 1     100.00000000
  23 40 1     100.00000000
  23 41 1     100.00000000
  23 42 1     100.00000000
  23 43 1     100.00000000
  23 44 1     100.00000000
  23 45 1     100.00000000
  23 46 1     100.00000000
  23 47 1     100.00000000
  23 48 1     100.00000000
  23 49 1     100.00000000
  23 50 1     100.00000000
  23 51 1     100.00000000
  23 52 1     100.00000000
  23 53 1     100.00000000
  23 54 1     100.00000000
  23 55 1     100.00000000
  23 56 1     100.00000000
  23 57 1     100.00000000
  23 58 1     100.00000000
  23 59 1     100.00000000
  23 60 1     100.00000000
  23 61 1     100.00000000
  23 62 1     100.00000000
  23 63 1     100.00000000
  23 64 1     100.00000000
  23 65 1     100.00000000
  23 66 1     100.00000000
  23 67 1     100.00000000
  23 68 1     100.00000000
  23 69 1     100.00000000
  23 70 1     100.00000000
  24 1 1     100.00000000
  24 2 1     100.00000000
  24 3 1     100.00000000
  24 4 1     100.00000000
  24 5 1     100.00000000
  24 6 1     100.00000000
  24 7 1     100.00000000
  24 8 1     100.00000000
  24 9 1     100.00000000
  24 10 1     100.00000000
  24 11 1     100.00000000
  24 12 1     100.00000000
  24 13 1     100.00000000
  24 14 1     100.00000000
  24 15 1     100.00000000
  24 16 1     100.00000000
  24 17 1     100.00000000
  24 18 1     100.00000000
  24 19 1     100.00000000
  24 20 1     100.00000000
  24 21 1     100.00000000
  24 22 1     100.00000000
  24 23 1     100.00000000
  24 24 1     100.00000000
  24 25 1     100.00000000
  24 26 1     100.00000000
  24 27 1     100.00000000
  24 28 1     100.00000000
  24 29 1     100.00000000
  24 30 1     100.00000000
  24 31 1     100.00000000
  24 32 1     100.00000000
  24 33 1     100.00000000
  24 34 1     100.00000000
  24 35 1     100.00000000
  24 36 1     100.00000000
  24 37 1     100.00000000
  24 38 1     100.00000000
  24 39 1     100.00000000
  24 40 1     100.00000000
  24 41 1     100.00000000
  24 42 1     100.00000000
  24 43 1     100.00000000
  24 44 1     100.00000000
  24 45 1     100.00000000
  24 46 1     100.00000000
  24 47 1     100.00000000
  24 48 1     100.00000000
  24 49 1     100.00000000
  24 50 1     100.00000000
  24 51 1     100.00000000
  24 52 1     100.00000000
  24 53 1     100.00000000
  24 54 1     100.00000000
  24 55 1     100.00000000
  24 56 1     100.00000000
  24 57 1     100.00000000
  24 58 1     100.00000000
  24 59 1     100.00000000
  24 60 1     100.00000000
  24 61 1     100.00000000
  24 62 1     100.00000000
  24 63 1     100.00000000
  24 64 1     100.00000000
  24 65 1     100.00000000
  24 66 1     100.00000000
  24 67 1     100.00000000
  24 68 1     100.00000000
  24 69 1     100.00000000
  24 70 1     100.00000000
  25 1 1     100.00000000
  25 2 1     100.00000000
  25 3 1     100.00000000
  25 4 1     100.00000000
  25 5 1     100.00000000
  25 6 1     100.00000000
  25 7 1     100.00000000
  25 8 1     100.00000000
  25 9 1     100.00000000
  25 10 1     100.00000000
  25 11 1     100.00000000
  25 12 1     100.00000000
  25 13 1     100.00000000
  25 14 1     100.00000000
  25 15 1     100.00000000
  25 16 1     100.00000000
  25 17 1     100.00000000
  25 18 1     100.00000000
  25 19 1     100.00000000
  25 20 1     100.00000000
  25 21 1     100.00000000
  25 22 1     100.00000000
  25 23 1     100.00000000
  25 24 1     100.00000000
  25 25 1     100.00000000
  25 26 1     100.00000000
  25 27 1     100.00000000
  25 28 1     100.00000000
  25 29 1     100.00000000
  25 30 1     100.00000000
  25 31 1     100.00000000
  25 32 1     100.00000000
  25 33 1     100.00000000
  25 34 1     100.00000000
  25 35 1     100.00000000
  25 36 1     100.00000000
  25 37 1     100.00000000
  25 38 1     100.00000000
  25 39 1     100.00000000
  25 40 1     100.00000000
  25 41 1     100.00000000
  25 42 1     100.00000000
  25 43 1     100.00000000
  25 44 1     100.00000000
  25 45 1     100.00000000
  25 46 1     100.00000000
  25 47 1     100.00000000
  25 48 1     100.00000000
  25 49 1     100.00000000
  25 50 1     100.00000000
  25 51 1     100.00000000
  25 52 1     100.00000000
  25 53 1     100.00000000
  25 54 1     100.00000000
  25 55 1     100.00000000
  25 56 1     100.00000000
  25 57 1     100.00000000
  25 58 1     100.00000000
  25 59 1     100.00000000
  25 60 1     100.00000000
  25 61 1     100.00000000
  25 62 1     100.00000000
  25 63 1     100.00000000
  25 64 1     100.00000000
  25 65 1     100.00000000
  25 66 1     100.00000000
  25 67 1     100.00000000
  25 68 1     100.00000000
  25 69 1     100.00000000
  25 70 1     100.00000000
  26 1 1     100.00000000
  26 2 1     100.00000000
  26 3 1     100.00000000
  26 4 1     100.00000000
  26 5 1     100.00000000
  26 6 1     100.00000000
  26 7 1     100.00000000
  26 8 1     100.00000000
  26 9 1     100.00000000
  26 10 1     100.00000000
  26 11 1     100.00000000
  26 12 1     100.00000000
  26 13 1     100.00000000
  26 14 1     100.00000000
  26 15 1     100.00000000
  26 16 1     100.00000000
  26 17 1     100.00000000
  26 18 1     100.00000000
  26 19 1     100.00000000
  26 20 1     100.00000000
  26 21 1     100.00000000
  26 22 1     100.00000000
  26 23 1     100.00000000
  26 24 1     100.00000000
  26 25 1     100.00000000
  26 26 1     100.00000000
  26 27 1     100.00000000
  26 28 1     100.00000000
  26 29 1     100.00000000
  26 30 1     100.00000000
  26 31 1     100.00000000
  26 32 1     100.00000000
  26 33 1     100.00000000
  26 34 1     100.00000000
  26 35 1     100.00000000
  26 36 1     100.00000000
  26 37 1     100.00000000
  26 38 1     100.00000000
  26 39 1     100.00000000
  26 40 1     100.00000000
  26 41 1     100.00000000
  26 42 1     100.00000000
  26 43 1     100.00000000
  26 44 1     100.00000000
  26 45 1     100.00000000
  26 46 1     100.00000000
  26 47 1     100.00000000
  26 48 1     100.00000000
  26 49 1     100.00000000
  26 50 1     100.00000000
  26 51 1     100.00000000
  26 52 1     100.00000000
  26 53 1     100.00000000
  26 54 1     100.00000000
  26 55 1     100.00000000
  26 56 1     100.00000000
  26 57 1     100.00000000
  26 58 1     100.00000000
  26 59 1     100.00000000
  26 60 1     100.00000000