# MPSIM package for MODPATH 7 generated by Flopy 3.8.2
test_mp_forward.mpnam
test_mp_forward.mplst
4 2 1 1 0 0
test_mp_forward.mpend
test_mp_forward.mppth
test_mp_forward.timeseries
0
1
0
2
1
100 0.01
1
1
1
PG1
1
0.0
INTERNAL
3
1 2
2 2 0
 1 1 1
 211704 215495
