# File generated by Flopy version 3.8.2 on 01/20/2025 at 17:09:41.
BEGIN options
END options

BEGIN griddata
  strt
    CONSTANT       1.00000000
END griddata

