# MPSIM package for MODPATH 7 generated by Flopy 3.8.2
test_mp_forward.mpnam
test_mp_forward.mplst
4 2 1 1 0 0
test_mp_forward.mpend
test_mp_forward.mppth
test_mp_forward.timeseries
0
1
0
2
1
100 0.01
1
1
10
PG1
1
0.0
INTERNAL
1
1
1 0
         2        41        98       0.2482803        0.343616       0.2707063               0         0
PG1
1
0.0
INTERNAL
1
1
1 0
         2        23       120       0.4904628       0.9653651       0.6047584               0         0
PG1
1
0.0
INTERNAL
1
1
1 0
         3        56        67       0.6750541       0.3116575        0.382572               0         0
PG1
1
0.0
INTERNAL
1
1
1 0
         2         9        89        0.837722       0.4682206       0.1455991               0         0
PG1
1
0.0
INTERNAL
1
1
1 0
         2        69        78       0.4287653       0.9171315       0.4770398               0         0
PG1
1
0.0
INTERNAL
1
1
1 0
         2        24        74       0.4381636       0.9327257       0.5856181               0         0
PG1
1
0.0
INTERNAL
1
1
1 0
         4        41        81       0.3257488       0.2113362       0.8507202               0         0
PG1
1
0.0
INTERNAL
1
1
1 0
         4        31        93      0.00778665        0.108288       0.6761773               0         0
PG1
1
0.0
INTERNAL
1
1
1 0
         4        61        96       0.7629481       0.8270857       0.7037936               0         0
PG1
1
0.0
INTERNAL
1
1
1 0
         2        57       107       0.1798938       0.8671042       0.6439856               0         0
