# MPSIM package for MODPATH 7 generated by Flopy 3.8.2
test_mp_forward.mpnam
test_mp_forward.mplst
4 2 1 1 0 0
test_mp_forward.mpend
test_mp_forward.mppth
test_mp_forward.timeseries
0
1
0
2
1
100 0.01
1
1
3
PG1
1
0.0
INTERNAL
1
1
1 0
         9         2        29            0.45            0.25       0.6667345               0         0
PG1
1
0.0
INTERNAL
1
1
1 0
        15         2        29            0.45            0.25    5.086276e-05               0         0
PG1
1
0.0
INTERNAL
1
1
1 0
        22         2        29            0.45            0.25       0.3333672               0         0
