MODPATH_TIMESERIES_FILE         7         2
    2   0.0000000000E+00  0.0000000000E+00  0.0000000000E+00  0.0000000000E+00
END HEADER
       0       1  0.0000000000E+00         1    1         1     14200  0.3120701000E+00  0.6718080000E+00  0.3458022000E+00  0.1458724206E+03  0.4401542400E+02 -0.7996277153E+01        12
       0       1  0.0000000000E+00         2    2         1     10215  0.8726157000E+00  0.9826825000E+00  0.1377594000E+00  0.1792356942E+03  0.7194804750E+02 -0.7158692125E+01         9
       0       1  0.0000000000E+00         3    3         1     24237  0.6687635000E+00  0.1558287000E+00  0.2237750000E+00  0.1000125810E+03  0.2146748610E+02 -0.1043287911E+02        20
       0       1  0.0000000000E+00         4    4         1     16088  0.2094305000E+00  0.7341103000E+00  0.5387650000E+00  0.1332565830E+03  0.9220233090E+02 -0.8538386929E+01        14
       0       1  0.0000000000E+00         5    5         1     13460  0.3571913000E+00  0.9585658000E+00  0.6065484000E+00  0.1161431478E+03  0.2875697400E+01 -0.7618054251E+01        11
       0       1  0.0000000000E+00         6    6         1     12654  0.3595409000E+00  0.4663629000E+00  0.9101744000E+00  0.1101572454E+03  0.7039908870E+02 -0.7526966682E+01        11
       0       1  0.0000000000E+00         7    7         1     28896  0.8143721000E-01  0.6056681000E+00  0.4174325000E+00  0.1204886233E+03  0.4381700430E+02 -0.1157477896E+02        24
       0       1  0.0000000000E+00         8    8         1     29949  0.1946662000E-02  0.5541440000E+00  0.6509401000E+00  0.1380116800E+03  0.5866243200E+02 -0.1180472609E+02        25
       0       1  0.0000000000E+00         9    9         1     28024  0.9407370000E+00  0.9135429000E+00  0.8305396000E+00  0.1436444220E+03  0.1474062870E+02 -0.1115084791E+02        23
       0       1  0.0000000000E+00        10   10         1     13257  0.5449734000E+00  0.9335521000E+00  0.6357710000E+00  0.1592698404E+03  0.2080065630E+02 -0.7609287493E+01        11
       0       1  0.0000000000E+00        11   11         1     17214  0.4500000000E+00  0.2500000000E+00  0.5086276000E-04  0.1707000000E+03  0.9975000000E+02 -0.9000000001E+01        15
       1       1  0.1000000000E-01         1    1         1     14200  0.3120701000E+00  0.6718080000E+00  0.3458021994E+00  0.1458724206E+03  0.4401542400E+02 -0.7996277153E+01        12
       1       1  0.1000000000E-01         2    2         1     10215  0.8726156999E+00  0.9826825000E+00  0.1377594056E+00  0.1792356942E+03  0.7194804750E+02 -0.7158692123E+01         9
       1       1  0.1000000000E-01         3    3         1     24237  0.6687634972E+00  0.1558286983E+00  0.2237750040E+00  0.1000125810E+03  0.2146748609E+02 -0.1043287911E+02        20
       1       1  0.1000000000E-01         4    4         1     16088  0.2094304998E+00  0.7341103002E+00  0.5387649993E+00  0.1332565830E+03  0.9220233090E+02 -0.8538386930E+01        14
       1       1  0.1000000000E-01         5    5         1     13460  0.3571912999E+00  0.9585657999E+00  0.6065483910E+00  0.1161431478E+03  0.2875697400E+01 -0.7618054254E+01        11
       1       1  0.1000000000E-01         6    6         1     12654  0.3595408997E+00  0.4663629004E+00  0.9101743545E+00  0.1101572454E+03  0.7039908870E+02 -0.7526966695E+01        11
       1       1  0.1000000000E-01         7    7         1     28896  0.8143721000E-01  0.6056681000E+00  0.4174325000E+00  0.1204886233E+03  0.4381700430E+02 -0.1157477896E+02        24
       1       1  0.1000000000E-01         8    8         1     29949  0.1946662000E-02  0.5541440000E+00  0.6509401000E+00  0.1380116800E+03  0.5866243200E+02 -0.1180472609E+02        25
       1       1  0.1000000000E-01         9    9         1     28024  0.9407370000E+00  0.9135429000E+00  0.8305396000E+00  0.1436444220E+03  0.1474062870E+02 -0.1115084791E+02        23
       1       1  0.1000000000E-01        10   10         1     13257  0.5449733998E+00  0.9335520998E+00  0.6357709836E+00  0.1592698404E+03  0.2080065630E+02 -0.7609287498E+01        11
       1       1  0.1000000000E-01        11   11         1     17214  0.4500000000E+00  0.2500000000E+00  0.5086546723E-04  0.1707000000E+03  0.9975000000E+02 -0.9000000000E+01        15
       2       1  0.2000000000E-01         1    1         1     14200  0.3120701000E+00  0.6718080000E+00  0.3458021987E+00  0.1458724206E+03  0.4401542400E+02 -0.7996277153E+01        12
       2       1  0.2000000000E-01         2    2         1     10215  0.8726156997E+00  0.9826824999E+00  0.1377594112E+00  0.1792356942E+03  0.7194804750E+02 -0.7158692121E+01         9
       2       1  0.2000000000E-01         3    3         1     24237  0.6687634943E+00  0.1558286966E+00  0.2237750079E+00  0.1000125810E+03  0.2146748609E+02 -0.1043287911E+02        20
       2       1  0.2000000000E-01         4    4         1     16088  0.2094304996E+00  0.7341103003E+00  0.5387649987E+00  0.1332565830E+03  0.9220233090E+02 -0.8538386930E+01        14
       2       1  0.2000000000E-01         5    5         1     13460  0.3571912997E+00  0.9585657999E+00  0.6065483821E+00  0.1161431478E+03  0.2875697400E+01 -0.7618054256E+01        11
       2       1  0.2000000000E-01         6    6         1     12654  0.3595408995E+00  0.4663629008E+00  0.9101743089E+00  0.1101572454E+03  0.7039908870E+02 -0.7526966709E+01        11
       2       1  0.2000000000E-01         7    7         1     28896  0.8143721000E-01  0.6056681000E+00  0.4174325000E+00  0.1204886233E+03  0.4381700430E+02 -0.1157477896E+02        24
       2       1  0.2000000000E-01         8    8         1     29949  0.1946662000E-02  0.5541440000E+00  0.6509401000E+00  0.1380116800E+03  0.5866243200E+02 -0.1180472609E+02        25
       2       1  0.2000000000E-01         9    9         1     28024  0.9407370000E+00  0.9135429000E+00  0.8305396000E+00  0.1436444220E+03  0.1474062870E+02 -0.1115084791E+02        23
       2       1  0.2000000000E-01        10   10         1     13257  0.5449733997E+00  0.9335520996E+00  0.6357709672E+00  0.1592698404E+03  0.2080065630E+02 -0.7609287503E+01        11
       2       1  0.2000000000E-01        11   11         1     17214  0.4500000000E+00  0.2500000000E+00  0.5086817447E-04  0.1707000000E+03  0.9975000000E+02 -0.9000000000E+01        15
       3       1  0.3000000000E-01         1    1         1     14200  0.3120701000E+00  0.6718080000E+00  0.3458021981E+00  0.1458724206E+03  0.4401542400E+02 -0.7996277153E+01        12
       3       1  0.3000000000E-01         2    2         1     10215  0.8726156996E+00  0.9826824999E+00  0.1377594169E+00  0.1792356942E+03  0.7194804750E+02 -0.7158692120E+01         9
       3       1  0.3000000000E-01         3    3         1     24237  0.6687634915E+00  0.1558286948E+00  0.2237750119E+00  0.1000125809E+03  0.2146748608E+02 -0.1043287911E+02        20
       3       1  0.3000000000E-01         4    4         1     16088  0.2094304994E+00  0.7341103005E+00  0.5387649980E+00  0.1332565830E+03  0.9220233090E+02 -0.8538386930E+01        14
       3       1  0.3000000000E-01         5    5         1     13460  0.3571912996E+00  0.9585657998E+00  0.6065483731E+00  0.1161431478E+03  0.2875697400E+01 -0.7618054259E+01        11
       3       1  0.3000000000E-01         6    6         1     12654  0.3595408992E+00  0.4663629011E+00  0.9101742634E+00  0.1101572454E+03  0.7039908870E+02 -0.7526966723E+01        11
       3       1  0.3000000000E-01         7    7         1     28896  0.8143721000E-01  0.6056681000E+00  0.4174325000E+00  0.1204886233E+03  0.4381700430E+02 -0.1157477896E+02        24
       3       1  0.3000000000E-01         8    8         1     29949  0.1946662000E-02  0.5541440000E+00  0.6509401000E+00  0.1380116800E+03  0.5866243200E+02 -0.1180472609E+02        25
       3       1  0.3000000000E-01         9    9         1     28024  0.9407370000E+00  0.9135429000E+00  0.8305396000E+00  0.1436444220E+03  0.1474062870E+02 -0.1115084791E+02        23
       3       1  0.3000000000E-01        10   10         1     13257  0.5449733995E+00  0.9335520995E+00  0.6357709509E+00  0.1592698404E+03  0.2080065630E+02 -0.7609287508E+01        11
       3       1  0.3000000000E-01        11   11         1     17214  0.4499999999E+00  0.2500000001E+00  0.5087088170E-04  0.1707000000E+03  0.9975000000E+02 -0.8999999999E+01        15
       4       1  0.4000000000E-01         1    1         1     14200  0.3120701000E+00  0.6718080000E+00  0.3458021974E+00  0.1458724206E+03  0.4401542400E+02 -0.7996277154E+01        12
       4       1  0.4000000000E-01         2    2         1     10215  0.8726156994E+00  0.9826824998E+00  0.1377594225E+00  0.1792356942E+03  0.7194804750E+02 -0.7158692118E+01         9
       4       1  0.4000000000E-01         3    3         1     24237  0.6687634887E+00  0.1558286931E+00  0.2237750159E+00  0.1000125809E+03  0.2146748608E+02 -0.1043287911E+02        20
       4       1  0.4000000000E-01         4    4         1     16088  0.2094304992E+00  0.7341103007E+00  0.5387649974E+00  0.1332565830E+03  0.9220233090E+02 -0.8538386930E+01        14
       4       1  0.4000000000E-01         5    5         1     13460  0.3571912994E+00  0.9585657998E+00  0.6065483642E+00  0.1161431478E+03  0.2875697399E+01 -0.7618054262E+01        11
       4       1  0.4000000000E-01         6    6         1     12654  0.3595408989E+00  0.4663629015E+00  0.9101742179E+00  0.1101572454E+03  0.7039908870E+02 -0.7526966736E+01        11
       4       1  0.4000000000E-01         7    7         1     28896  0.8143721000E-01  0.6056681000E+00  0.4174325000E+00  0.1204886233E+03  0.4381700430E+02 -0.1157477896E+02        24
       4       1  0.4000000000E-01         8    8         1     29949  0.1946662000E-02  0.5541440000E+00  0.6509401000E+00  0.1380116800E+03  0.5866243200E+02 -0.1180472609E+02        25
       4       1  0.4000000000E-01         9    9         1     28024  0.9407370000E+00  0.9135429000E+00  0.8305396000E+00  0.1436444220E+03  0.1474062870E+02 -0.1115084791E+02        23
       4       1  0.4000000000E-01        10   10         1     13257  0.5449733993E+00  0.9335520993E+00  0.6357709345E+00  0.1592698404E+03  0.2080065630E+02 -0.7609287513E+01        11
       4       1  0.4000000000E-01        11   11         1     17214  0.4499999999E+00  0.2500000001E+00  0.5087358893E-04  0.1707000000E+03  0.9975000000E+02 -0.8999999998E+01        15
       5       1  0.5000000000E-01         1    1         1     14200  0.3120701000E+00  0.6718080000E+00  0.3458021968E+00  0.1458724206E+03  0.4401542400E+02 -0.7996277154E+01        12
       5       1  0.5000000000E-01         2    2         1     10215  0.8726156993E+00  0.9826824998E+00  0.1377594281E+00  0.1792356942E+03  0.7194804750E+02 -0.7158692116E+01         9
       5       1  0.5000000000E-01         3    3         1     24237  0.6687634859E+00  0.1558286914E+00  0.2237750199E+00  0.1000125809E+03  0.2146748607E+02 -0.1043287911E+02        20
       5       1  0.5000000000E-01         4    4         1     16088  0.2094304990E+00  0.7341103008E+00  0.5387649967E+00  0.1332565830E+03  0.9220233090E+02 -0.8538386930E+01        14
       5       1  0.5000000000E-01         5    5         1     13460  0.3571912993E+00  0.9585657997E+00  0.6065483552E+00  0.1161431478E+03  0.2875697399E+01 -0.7618054264E+01        11
       5       1  0.5000000000E-01         6    6         1     12654  0.3595408987E+00  0.4663629019E+00  0.9101741723E+00  0.1101572454E+03  0.7039908871E+02 -0.7526966750E+01        11
       5       1  0.5000000000E-01         7    7         1     28896  0.8143721000E-01  0.6056681000E+00  0.4174325000E+00  0.1204886233E+03  0.4381700430E+02 -0.1157477896E+02        24
       5       1  0.5000000000E-01         8    8         1     29949  0.1946662000E-02  0.5541440000E+00  0.6509401000E+00  0.1380116800E+03  0.5866243200E+02 -0.1180472609E+02        25
       5       1  0.5000000000E-01         9    9         1     28024  0.9407370000E+00  0.9135429000E+00  0.8305396000E+00  0.1436444220E+03  0.1474062870E+02 -0.1115084791E+02        23
       5       1  0.5000000000E-01        10   10         1     13257  0.5449733992E+00  0.9335520991E+00  0.6357709181E+00  0.1592698404E+03  0.2080065630E+02 -0.7609287518E+01        11
       5       1  0.5000000000E-01        11   11         1     17214  0.4499999999E+00  0.2500000001E+00  0.5087629616E-04  0.1707000000E+03  0.9975000000E+02 -0.8999999997E+01        15
       6       1  0.6000000000E-01         1    1         1     14200  0.3120701000E+00  0.6718080000E+00  0.3458021962E+00  0.1458724206E+03  0.4401542400E+02 -0.7996277154E+01        12
       6       1  0.6000000000E-01         2    2         1     10215  0.8726156991E+00  0.9826824997E+00  0.1377594337E+00  0.1792356942E+03  0.7194804750E+02 -0.7158692115E+01         9
       6       1  0.6000000000E-01         3    3         1     24237  0.6687634830E+00  0.1558286897E+00  0.2237750238E+00  0.1000125809E+03  0.2146748607E+02 -0.1043287911E+02        20
       6       1  0.6000000000E-01         4    4         1     16088  0.2094304988E+00  0.7341103010E+00  0.5387649961E+00  0.1332565830E+03  0.9220233090E+02 -0.8538386931E+01        14
       6       1  0.6000000000E-01         5    5         1     13460  0.3571912991E+00  0.9585657997E+00  0.6065483463E+00  0.1161431478E+03  0.2875697399E+01 -0.7618054267E+01        11
       6       1  0.6000000000E-01         6    6         1     12654  0.3595408984E+00  0.4663629023E+00  0.9101741268E+00  0.1101572454E+03  0.7039908871E+02 -0.7526966764E+01        11
       6       1  0.6000000000E-01         7    7         1     28896  0.8143721000E-01  0.6056681000E+00  0.4174325000E+00  0.1204886233E+03  0.4381700430E+02 -0.1157477896E+02        24
       6       1  0.6000000000E-01         8    8         1     29949  0.1946662000E-02  0.5541440000E+00  0.6509401000E+00  0.1380116800E+03  0.5866243200E+02 -0.1180472609E+02        25
       6       1  0.6000000000E-01         9    9         1     28024  0.9407370000E+00  0.9135429000E+00  0.8305396000E+00  0.1436444220E+03  0.1474062870E+02 -0.1115084791E+02        23
       6       1  0.6000000000E-01        10   10         1     13257  0.5449733990E+00  0.9335520989E+00  0.6357709017E+00  0.1592698404E+03  0.2080065630E+02 -0.7609287523E+01        11
       6       1  0.6000000000E-01        11   11         1     17214  0.4499999999E+00  0.2500000001E+00  0.5087900340E-04  0.1707000000E+03  0.9975000000E+02 -0.8999999996E+01        15
       7       1  0.7000000000E-01         1    1         1     14200  0.3120701000E+00  0.6718080000E+00  0.3458021955E+00  0.1458724206E+03  0.4401542400E+02 -0.7996277154E+01        12
       7       1  0.7000000000E-01         2    2         1     10215  0.8726156990E+00  0.9826824997E+00  0.1377594393E+00  0.1792356942E+03  0.7194804750E+02 -0.7158692113E+01         9
       7       1  0.7000000000E-01         3    3         1     24237  0.6687634802E+00  0.1558286880E+00  0.2237750278E+00  0.1000125809E+03  0.2146748606E+02 -0.1043287910E+02        20
       7       1  0.7000000000E-01         4    4         1     16088  0.2094304986E+00  0.7341103011E+00  0.5387649954E+00  0.1332565830E+03  0.9220233090E+02 -0.8538386931E+01        14
       7       1  0.7000000000E-01         5    5         1     13460  0.3571912990E+00  0.9585657996E+00  0.6065483373E+00  0.1161431478E+03  0.2875697399E+01 -0.7618054270E+01        11
       7       1  0.7000000000E-01         6    6         1     12654  0.3595408982E+00  0.4663629027E+00  0.9101740813E+00  0.1101572454E+03  0.7039908871E+02 -0.7526966777E+01        11
       7       1  0.7000000000E-01         7    7         1     28896  0.8143721000E-01  0.6056681000E+00  0.4174325000E+00  0.1204886233E+03  0.4381700430E+02 -0.1157477896E+02        24
       7       1  0.7000000000E-01         8    8         1     29949  0.1946661999E-02  0.5541440000E+00  0.6509401000E+00  0.1380116800E+03  0.5866243200E+02 -0.1180472609E+02        25
       7       1  0.7000000000E-01         9    9         1     28024  0.9407370000E+00  0.9135429000E+00  0.8305396000E+00  0.1436444220E+03  0.1474062870E+02 -0.1115084791E+02        23
       7       1  0.7000000000E-01        10   10         1     13257  0.5449733989E+00  0.9335520987E+00  0.6357708853E+00  0.1592698404E+03  0.2080065630E+02 -0.7609287528E+01        11
       7       1  0.7000000000E-01        11   11         1     17214  0.4499999999E+00  0.2500000002E+00  0.5088171063E-04  0.1707000000E+03  0.9975000000E+02 -0.8999999996E+01        15
       8       1  0.8000000000E-01         1    1         1     14200  0.3120701000E+00  0.6718080000E+00  0.3458021949E+00  0.1458724206E+03  0.4401542400E+02 -0.7996277154E+01        12
       8       1  0.8000000000E-01         2    2         1     10215  0.8726156988E+00  0.9826824997E+00  0.1377594449E+00  0.1792356942E+03  0.7194804750E+02 -0.7158692111E+01         9
       8       1  0.8000000000E-01         3    3         1     24237  0.6687634774E+00  0.1558286863E+00  0.2237750318E+00  0.1000125809E+03  0.2146748606E+02 -0.1043287910E+02        20
       8       1  0.8000000000E-01         4    4         1     16088  0.2094304984E+00  0.7341103013E+00  0.5387649948E+00  0.1332565830E+03  0.9220233090E+02 -0.8538386931E+01        14
       8       1  0.8000000000E-01         5    5         1     13460  0.3571912988E+00  0.9585657996E+00  0.6065483283E+00  0.1161431478E+03  0.2875697399E+01 -0.7618054272E+01        11
       8       1  0.8000000000E-01         6    6         1     12654  0.3595408979E+00  0.4663629030E+00  0.9101740357E+00  0.1101572454E+03  0.7039908871E+02 -0.7526966791E+01        11
       8       1  0.8000000000E-01         7    7         1     28896  0.8143721000E-01  0.6056681000E+00  0.4174325000E+00  0.1204886233E+03  0.4381700430E+02 -0.1157477896E+02        24
       8       1  0.8000000000E-01         8    8         1     29949  0.1946661999E-02  0.5541440000E+00  0.6509401000E+00  0.1380116800E+03  0.5866243200E+02 -0.1180472609E+02        25
       8       1  0.8000000000E-01         9    9         1     28024  0.9407370000E+00  0.9135429000E+00  0.8305396000E+00  0.1436444220E+03  0.1474062870E+02 -0.1115084791E+02        23
       8       1  0.8000000000E-01        10   10         1     13257  0.5449733987E+00  0.9335520986E+00  0.6357708689E+00  0.1592698404E+03  0.2080065630E+02 -0.7609287533E+01        11
       8       1  0.8000000000E-01        11   11         1     17214  0.4499999999E+00  0.2500000002E+00  0.5088441786E-04  0.1707000000E+03  0.9975000000E+02 -0.8999999995E+01        15
       9       1  0.9000000000E-01         1    1         1     14200  0.3120701000E+00  0.6718080000E+00  0.3458021943E+00  0.1458724206E+03  0.4401542400E+02 -0.7996277155E+01        12
       9       1  0.9000000000E-01         2    2         1     10215  0.8726156987E+00  0.9826824996E+00  0.1377594506E+00  0.1792356942E+03  0.7194804750E+02 -0.7158692110E+01         9
       9       1  0.9000000000E-01         3    3         1     24237  0.6687634745E+00  0.1558286845E+00  0.2237750357E+00  0.1000125808E+03  0.2146748605E+02 -0.1043287910E+02        20
       9       1  0.9000000000E-01         4    4         1     16088  0.2094304982E+00  0.7341103015E+00  0.5387649941E+00  0.1332565830E+03  0.9220233090E+02 -0.8538386931E+01        14
       9       1  0.9000000000E-01         5    5         1     13460  0.3571912987E+00  0.9585657995E+00  0.6065483194E+00  0.1161431478E+03  0.2875697399E+01 -0.7618054275E+01        11
       9       1  0.9000000000E-01         6    6         1     12654  0.3595408976E+00  0.4663629034E+00  0.9101739902E+00  0.1101572454E+03  0.7039908871E+02 -0.7526966805E+01        11
       9       1  0.9000000000E-01         7    7         1     28896  0.8143721000E-01  0.6056681000E+00  0.4174325000E+00  0.1204886233E+03  0.4381700430E+02 -0.1157477896E+02        24
       9       1  0.9000000000E-01         8    8         1     29949  0.1946661999E-02  0.5541440000E+00  0.6509401000E+00  0.1380116800E+03  0.5866243200E+02 -0.1180472609E+02        25
       9       1  0.9000000000E-01         9    9         1     28024  0.9407370000E+00  0.9135429000E+00  0.8305396000E+00  0.1436444220E+03  0.1474062870E+02 -0.1115084791E+02        23
       9       1  0.9000000000E-01        10   10         1     13257  0.5449733985E+00  0.9335520984E+00  0.6357708526E+00  0.1592698404E+03  0.2080065630E+02 -0.7609287537E+01        11
       9       1  0.9000000000E-01        11   11         1     17214  0.4499999998E+00  0.2500000002E+00  0.5088712510E-04  0.1707000000E+03  0.9975000000E+02 -0.8999999994E+01        15
      10       1  0.1000000000E+00         1    1         1     14200  0.3120701000E+00  0.6718080000E+00  0.3458021936E+00  0.1458724206E+03  0.4401542400E+02 -0.7996277155E+01        12
      10       1  0.1000000000E+00         2    2         1     10215  0.8726156985E+00  0.9826824996E+00  0.1377594562E+00  0.1792356942E+03  0.7194804750E+02 -0.7158692108E+01         9
      10       1  0.1000000000E+00         3    3         1     24237  0.6687634717E+00  0.1558286828E+00  0.2237750397E+00  0.1000125808E+03  0.2146748605E+02 -0.1043287910E+02        20
      10       1  0.1000000000E+00         4    4         1     16088  0.2094304981E+00  0.7341103016E+00  0.5387649935E+00  0.1332565830E+03  0.9220233090E+02 -0.8538386931E+01        14
      10       1  0.1000000000E+00         5    5         1     13460  0.3571912985E+00  0.9585657995E+00  0.6065483104E+00  0.1161431478E+03  0.2875697398E+01 -0.7618054278E+01        11
      10       1  0.1000000000E+00         6    6         1     12654  0.3595408974E+00  0.4663629038E+00  0.9101739446E+00  0.1101572454E+03  0.7039908871E+02 -0.7526966818E+01        11
      10       1  0.1000000000E+00         7    7         1     28896  0.8143721000E-01  0.6056681000E+00  0.4174325000E+00  0.1204886233E+03  0.4381700430E+02 -0.1157477896E+02        24
      10       1  0.1000000000E+00         8    8         1     29949  0.1946661999E-02  0.5541440000E+00  0.6509401000E+00  0.1380116800E+03  0.5866243200E+02 -0.1180472609E+02        25
      10       1  0.1000000000E+00         9    9         1     28024  0.9407370000E+00  0.9135429000E+00  0.8305396000E+00  0.1436444220E+03  0.1474062870E+02 -0.1115084791E+02        23
      10       1  0.1000000000E+00        10   10         1     13257  0.5449733984E+00  0.9335520982E+00  0.6357708362E+00  0.1592698404E+03  0.2080065629E+02 -0.7609287542E+01        11
      10       1  0.1000000000E+00        11   11         1     17214  0.4499999998E+00  0.2500000002E+00  0.5088983233E-04  0.1707000000E+03  0.9975000000E+02 -0.8999999993E+01        15
      11       1  0.1100000000E+00         1    1         1     14200  0.3120701000E+00  0.6718080000E+00  0.3458021930E+00  0.1458724206E+03  0.4401542400E+02 -0.7996277155E+01        12
      11       1  0.1100000000E+00         2    2         1     10215  0.8726156984E+00  0.9826824995E+00  0.1377594618E+00  0.1792356942E+03  0.7194804750E+02 -0.7158692106E+01         9
      11       1  0.1100000000E+00         3    3         1     24237  0.6687634689E+00  0.1558286811E+00  0.2237750437E+00  0.1000125808E+03  0.2146748604E+02 -0.1043287910E+02        20
      11       1  0.1100000000E+00         4    4         1     16088  0.2094304979E+00  0.7341103018E+00  0.5387649928E+00  0.1332565830E+03  0.9220233091E+02 -0.8538386932E+01        14
      11       1  0.1100000000E+00         5    5         1     13460  0.3571912984E+00  0.9585657994E+00  0.6065483015E+00  0.1161431478E+03  0.2875697398E+01 -0.7618054281E+01        11
      11       1  0.1100000000E+00         6    6         1     12654  0.3595408971E+00  0.4663629042E+00  0.9101738991E+00  0.1101572454E+03  0.7039908871E+02 -0.7526966832E+01        11
      11       1  0.1100000000E+00         7    7         1     28896  0.8143721000E-01  0.6056681000E+00  0.4174325000E+00  0.1204886233E+03  0.4381700430E+02 -0.1157477896E+02        24
      11       1  0.1100000000E+00         8    8         1     29949  0.1946661999E-02  0.5541440000E+00  0.6509401000E+00  0.1380116800E+03  0.5866243200E+02 -0.1180472609E+02        25
      11       1  0.1100000000E+00         9    9         1     28024  0.9407370000E+00  0.9135429000E+00  0.8305396000E+00  0.1436444220E+03  0.1474062870E+02 -0.1115084791E+02        23
      11       1  0.1100000000E+00        10   10         1     13257  0.5449733982E+00  0.9335520980E+00  0.6357708198E+00  0.1592698404E+03  0.2080065629E+02 -0.7609287547E+01        11
      11       1  0.1100000000E+00        11   11         1     17214  0.4499999998E+00  0.2500000003E+00  0.5089253956E-04  0.1707000000E+03  0.9975000000E+02 -0.8999999992E+01        15
      12       1  0.1200000000E+00         1    1         1     14200  0.3120700999E+00  0.6718080000E+00  0.3458021923E+00  0.1458724206E+03  0.4401542400E+02 -0.7996277155E+01        12
      12       1  0.1200000000E+00         2    2         1     10215  0.8726156982E+00  0.9826824995E+00  0.1377594674E+00  0.1792356942E+03  0.7194804750E+02 -0.7158692104E+01         9
      12       1  0.1200000000E+00         3    3         1     24237  0.6687634660E+00  0.1558286794E+00  0.2237750476E+00  0.1000125808E+03  0.2146748604E+02 -0.1043287910E+02        20
      12       1  0.1200000000E+00         4    4         1     16088  0.2094304977E+00  0.7341103020E+00  0.5387649922E+00  0.1332565830E+03  0.9220233091E+02 -0.8538386932E+01        14
      12       1  0.1200000000E+00         5    5         1     13460  0.3571912983E+00  0.9585657994E+00  0.6065482925E+00  0.1161431478E+03  0.2875697398E+01 -0.7618054283E+01        11
      12       1  0.1200000000E+00         6    6         1     12654  0.3595408968E+00  0.4663629046E+00  0.9101738536E+00  0.1101572454E+03  0.7039908871E+02 -0.7526966846E+01        11
      12       1  0.1200000000E+00         7    7         1     28896  0.8143721000E-01  0.6056681000E+00  0.4174325000E+00  0.1204886233E+03  0.4381700430E+02 -0.1157477896E+02        24
      12       1  0.1200000000E+00         8    8         1     29949  0.1946661999E-02  0.5541440000E+00  0.6509401000E+00  0.1380116800E+03  0.5866243200E+02 -0.1180472609E+02        25
      12       1  0.1200000000E+00         9    9         1     28024  0.9407370000E+00  0.9135429000E+00  0.8305396000E+00  0.1436444220E+03  0.1474062870E+02 -0.1115084791E+02        23
      12       1  0.1200000000E+00        10   10         1     13257  0.5449733980E+00  0.9335520979E+00  0.6357708034E+00  0.1592698404E+03  0.2080065629E+02 -0.7609287552E+01        11
      12       1  0.1200000000E+00        11   11         1     17214  0.4499999998E+00  0.2500000003E+00  0.5089524679E-04  0.1707000000E+03  0.9975000000E+02 -0.8999999991E+01        15
      13       1  0.1300000000E+00         1    1         1     14200  0.3120700999E+00  0.6718080000E+00  0.3458021917E+00  0.1458724206E+03  0.4401542400E+02 -0.7996277155E+01        12
      13       1  0.1300000000E+00         2    2         1     10215  0.8726156981E+00  0.9826824994E+00  0.1377594730E+00  0.1792356942E+03  0.7194804750E+02 -0.7158692103E+01         9
      13       1  0.1300000000E+00         3    3         1     24237  0.6687634632E+00  0.1558286777E+00  0.2237750516E+00  0.1000125808E+03  0.2146748603E+02 -0.1043287910E+02        20
      13       1  0.1300000000E+00         4    4         1     16088  0.2094304975E+00  0.7341103021E+00  0.5387649915E+00  0.1332565830E+03  0.9220233091E+02 -0.8538386932E+01        14
      13       1  0.1300000000E+00         5    5         1     13460  0.3571912981E+00  0.9585657993E+00  0.6065482836E+00  0.1161431478E+03  0.2875697398E+01 -0.7618054286E+01        11
      13       1  0.1300000000E+00         6    6         1     12654  0.3595408966E+00  0.4663629049E+00  0.9101738080E+00  0.1101572454E+03  0.7039908871E+02 -0.7526966859E+01        11
      13       1  0.1300000000E+00         7    7         1     28896  0.8143721000E-01  0.6056681000E+00  0.4174325000E+00  0.1204886233E+03  0.4381700430E+02 -0.1157477896E+02        24
      13       1  0.1300000000E+00         8    8         1     29949  0.1946661999E-02  0.5541440000E+00  0.6509401000E+00  0.1380116800E+03  0.5866243200E+02 -0.1180472609E+02        25
      13       1  0.1300000000E+00         9    9         1     28024  0.9407370000E+00  0.9135429000E+00  0.8305396000E+00  0.1436444220E+03  0.1474062870E+02 -0.1115084791E+02        23
      13       1  0.1300000000E+00        10   10         1     13257  0.5449733979E+00  0.9335520977E+00  0.6357707870E+00  0.1592698404E+03  0.2080065629E+02 -0.7609287557E+01        11
      13       1  0.1300000000E+00        11   11         1     17214  0.4499999998E+00  0.2500000003E+00  0.5089795403E-04  0.1707000000E+03  0.9975000000E+02 -0.8999999991E+01        15
      14       1  0.1400000000E+00         1    1         1     14200  0.3120700999E+00  0.6718080000E+00  0.3458021911E+00  0.1458724206E+03  0.4401542400E+02 -0.7996277155E+01        12
      14       1  0.1400000000E+00         2    2         1     10215  0.8726156979E+00  0.9826824994E+00  0.1377594786E+00  0.1792356942E+03  0.7194804750E+02 -0.7158692101E+01         9
      14       1  0.1400000000E+00         3    3         1     24237  0.6687634604E+00  0.1558286759E+00  0.2237750556E+00  0.1000125808E+03  0.2146748603E+02 -0.1043287910E+02        20
      14       1  0.1400000000E+00         4    4         1     16088  0.2094304973E+00  0.7341103023E+00  0.5387649909E+00  0.1332565830E+03  0.9220233091E+02 -0.8538386932E+01        14