# File generated by Flopy version 3.4.1 on 01/08/2025 at 09:33:49.
BEGIN griddata
  strt
    CONSTANT       1.00000000
END griddata

