MODPATH_TIMESERIES_FILE         7         2
    2   0.0000000000E+00  0.0000000000E+00  0.0000000000E+00  0.0000000000E+00
END HEADER
       0       1  0.0000000000E+00         1    1         1    284668  0.1333333000E+00  0.5000000000E+00  0.1017255000E-03  0.7069999995E+02  0.9975000000E+02 -0.9000000001E+01        30
       0       1  0.0000000000E+00         2    2         1    323868  0.1333333000E+00  0.5000000000E+00  0.6667599000E+00  0.7069999995E+02  0.9975000000E+02 -0.9499999998E+01        34
       0       1  0.0000000000E+00         3    3         1    353268  0.1333333000E+00  0.5000000000E+00  0.3334181000E+00  0.7069999995E+02  0.9975000000E+02 -0.1000000000E+02        37
       1       1  0.1000000000E-01         1    1         1    284668  0.1333332997E+00  0.5000000000E+00  0.1017266231E-03  0.7069999995E+02  0.9975000000E+02 -0.9000000001E+01        30
       1       1  0.1000000000E-01         2    2         1    323868  0.1333332961E+00  0.4999999992E+00  0.6667598859E+00  0.7069999994E+02  0.9975000000E+02 -0.9500000000E+01        34
       1       1  0.1000000000E-01         3    3         1    353268  0.1333331902E+00  0.4999999909E+00  0.3334181143E+00  0.7069999979E+02  0.9974999999E+02 -0.1000000000E+02        37
       2       1  0.2000000000E-01         1    1         1    284668  0.1333332994E+00  0.5000000000E+00  0.1017277461E-03  0.7069999995E+02  0.9975000000E+02 -0.9000000001E+01        30
       2       1  0.2000000000E-01         2    2         1    323868  0.1333332923E+00  0.4999999983E+00  0.6667598718E+00  0.7069999994E+02  0.9975000000E+02 -0.9500000003E+01        34
       2       1  0.2000000000E-01         3    3         1    353268  0.1333330804E+00  0.4999999818E+00  0.3334181286E+00  0.7069999962E+02  0.9974999997E+02 -0.9999999997E+01        37
       3       1  0.3000000000E-01         1    1         1    284668  0.1333332991E+00  0.5000000000E+00  0.1017288692E-03  0.7069999995E+02  0.9975000000E+02 -0.9000000001E+01        30
       3       1  0.3000000000E-01         2    2         1    323868  0.1333332884E+00  0.4999999975E+00  0.6667598578E+00  0.7069999993E+02  0.9975000000E+02 -0.9500000005E+01        34
       3       1  0.3000000000E-01         3    3         1    353268  0.1333329706E+00  0.4999999727E+00  0.3334181428E+00  0.7069999946E+02  0.9974999996E+02 -0.9999999995E+01        37
       4       1  0.4000000000E-01         1    1         1    284668  0.1333332988E+00  0.5000000000E+00  0.1017299923E-03  0.7069999995E+02  0.9975000000E+02 -0.9000000001E+01        30
       4       1  0.4000000000E-01         2    2         1    323868  0.1333332845E+00  0.4999999967E+00  0.6667598437E+00  0.7069999993E+02  0.9975000000E+02 -0.9500000007E+01        34
       4       1  0.4000000000E-01         3    3         1    353268  0.1333328608E+00  0.4999999636E+00  0.3334181571E+00  0.7069999929E+02  0.9974999995E+02 -0.9999999993E+01        37
       5       1  0.5000000000E-01         1    1         1    284668  0.1333332985E+00  0.5000000000E+00  0.1017311154E-03  0.7069999995E+02  0.9975000000E+02 -0.9000000000E+01        30
       5       1  0.5000000000E-01         2    2         1    323868  0.1333332807E+00  0.4999999958E+00  0.6667598296E+00  0.7069999992E+02  0.9974999999E+02 -0.9500000009E+01        34
       5       1  0.5000000000E-01         3    3         1    353268  0.1333327509E+00  0.4999999545E+00  0.3334181714E+00  0.7069999913E+02  0.9974999993E+02 -0.9999999991E+01        37
       6       1  0.6000000000E-01         1    1         1    284668  0.1333332983E+00  0.5000000000E+00  0.1017322384E-03  0.7069999995E+02  0.9975000000E+02 -0.9000000000E+01        30
       6       1  0.6000000000E-01         2    2         1    323868  0.1333332768E+00  0.4999999950E+00  0.6667598155E+00  0.7069999992E+02  0.9974999999E+02 -0.9500000011E+01        34
       6       1  0.6000000000E-01         3    3         1    353268  0.1333326411E+00  0.4999999454E+00  0.3334181857E+00  0.7069999896E+02  0.9974999992E+02 -0.9999999989E+01        37
       7       1  0.7000000000E-01         1    1         1    284668  0.1333332980E+00  0.5000000000E+00  0.1017333615E-03  0.7069999995E+02  0.9975000000E+02 -0.9000000000E+01        30
       7       1  0.7000000000E-01         2    2         1    323868  0.1333332729E+00  0.4999999942E+00  0.6667598015E+00  0.7069999991E+02  0.9974999999E+02 -0.9500000013E+01        34
       7       1  0.7000000000E-01         3    3         1    353268  0.1333325313E+00  0.4999999363E+00  0.3334181999E+00  0.7069999880E+02  0.9974999990E+02 -0.9999999987E+01        37
       8       1  0.8000000000E-01         1    1         1    284668  0.1333332977E+00  0.5000000000E+00  0.1017344846E-03  0.7069999995E+02  0.9975000000E+02 -0.9000000000E+01        30
       8       1  0.8000000000E-01         2    2         1    323868  0.1333332691E+00  0.4999999934E+00  0.6667597874E+00  0.7069999990E+02  0.9974999999E+02 -0.9500000015E+01        34
       8       1  0.8000000000E-01         3    3         1    353268  0.1333324215E+00  0.4999999272E+00  0.3334182142E+00  0.7069999863E+02  0.9974999989E+02 -0.9999999985E+01        37
       9       1  0.9000000000E-01         1    1         1    284668  0.1333332974E+00  0.5000000000E+00  0.1017356077E-03  0.7069999995E+02  0.9975000000E+02 -0.9000000000E+01        30
       9       1  0.9000000000E-01         2    2         1    323868  0.1333332652E+00  0.4999999925E+00  0.6667597733E+00  0.7069999990E+02  0.9974999999E+02 -0.9500000017E+01        34
       9       1  0.9000000000E-01         3    3         1    353268  0.1333323117E+00  0.4999999181E+00  0.3334182285E+00  0.7069999847E+02  0.9974999988E+02 -0.9999999982E+01        37
      10       1  0.1000000000E+00         1    1         1    284668  0.1333332971E+00  0.5000000000E+00  0.1017367307E-03  0.7069999995E+02  0.9975000000E+02 -0.9000000000E+01        30
      10       1  0.1000000000E+00         2    2         1    323868  0.1333332613E+00  0.4999999917E+00  0.6667597592E+00  0.7069999989E+02  0.9974999999E+02 -0.9500000019E+01        34
      10       1  0.1000000000E+00         3    3         1    353268  0.1333322019E+00  0.4999999090E+00  0.3334182428E+00  0.7069999830E+02  0.9974999986E+02 -0.9999999980E+01        37
      11       1  0.1100000000E+00         1    1         1    284668  0.1333332968E+00  0.5000000000E+00  0.1017378538E-03  0.7069999995E+02  0.9975000000E+02 -0.8999999999E+01        30
      11       1  0.1100000000E+00         2    2         1    323868  0.1333332575E+00  0.4999999909E+00  0.6667597452E+00  0.7069999989E+02  0.9974999999E+02 -0.9500000022E+01        34
      11       1  0.1100000000E+00         3    3         1    353268  0.1333320921E+00  0.4999998999E+00  0.3334182571E+00  0.7069999814E+02  0.9974999985E+02 -0.9999999978E+01        37
      12       1  0.1200000000E+00         1    1         1    284668  0.1333332965E+00  0.5000000001E+00  0.1017389769E-03  0.7069999994E+02  0.9975000000E+02 -0.8999999999E+01        30
      12       1  0.1200000000E+00         2    2         1    323868  0.1333332536E+00  0.4999999900E+00  0.6667597311E+00  0.7069999988E+02  0.9974999999E+02 -0.9500000024E+01        34
      12       1  0.1200000000E+00         3    3         1    353268  0.1333319823E+00  0.4999998908E+00  0.3334182713E+00  0.7069999797E+02  0.9974999984E+02 -0.9999999976E+01        37
      13       1  0.1300000000E+00         1    1         1    284668  0.1333332962E+00  0.5000000001E+00  0.1017400999E-03  0.7069999994E+02  0.9975000000E+02 -0.8999999999E+01        30
      13       1  0.1300000000E+00         2    2         1    323868  0.1333332497E+00  0.4999999892E+00  0.6667597170E+00  0.7069999987E+02  0.9974999998E+02 -0.9500000026E+01        34
      13       1  0.1300000000E+00         3    3         1    353268  0.1333318725E+00  0.4999998817E+00  0.3334182856E+00  0.7069999781E+02  0.9974999982E+02 -0.9999999974E+01        37
      14       1  0.1400000000E+00         1    1         1    284668  0.1333332959E+00  0.5000000001E+00  0.1017412230E-03  0.7069999994E+02  0.9975000000E+02 -0.8999999999E+01        30
      14       1  0.1400000000E+00         2    2         1    323868  0.1333332459E+00  0.4999999884E+00  0.6667597029E+00  0.7069999987E+02  0.9974999998E+02 -0.9500000028E+01        34
      14       1  0.1400000000E+00         3    3         1    353268  0.1333317626E+00  0.4999998726E+00  0.3334182999E+00  0.7069999764E+02  0.9974999981E+02 -0.9999999972E+01        37
      15       1  0.1500000000E+00         1    1         1    284668  0.1333332956E+00  0.5000000001E+00  0.1017423461E-03  0.7069999994E+02  0.9975000000E+02 -0.8999999999E+01        30
      15       1  0.1500000000E+00         2    2         1    323868  0.1333332420E+00  0.4999999875E+00  0.6667596889E+00  0.7069999986E+02  0.9974999998E+02 -0.9500000030E+01        34
      15       1  0.1500000000E+00         3    3         1    353268  0.1333316528E+00  0.4999998635E+00  0.3334183142E+00  0.7069999748E+02  0.9974999980E+02 -0.9999999970E+01        37
      16       1  0.1600000000E+00         1    1         1    284668  0.1333332953E+00  0.5000000001E+00  0.1017434692E-03  0.7069999994E+02  0.9975000000E+02 -0.8999999999E+01        30
      16       1  0.1600000000E+00         2    2         1    323868  0.1333332381E+00  0.4999999867E+00  0.6667596748E+00  0.7069999986E+02  0.9974999998E+02 -0.9500000032E+01        34
      16       1  0.1600000000E+00         3    3         1    353268  0.1333315430E+00  0.4999998544E+00  0.3334183285E+00  0.7069999731E+02  0.9974999978E+02 -0.9999999967E+01        37
      17       1  0.1700000000E+00         1    1         1    284668  0.1333332951E+00  0.5000000001E+00  0.1017445922E-03  0.7069999994E+02  0.9975000000E+02 -0.8999999998E+01        30
      17       1  0.1700000000E+00         2    2         1    323868  0.1333332343E+00  0.4999999859E+00  0.6667596607E+00  0.7069999985E+02  0.9974999998E+02 -0.9500000034E+01        34
      17       1  0.1700000000E+00         3    3         1    353268  0.1333314332E+00  0.4999998453E+00  0.3334183427E+00  0.7069999715E+02  0.9974999977E+02 -0.9999999965E+01        37
      18       1  0.1800000000E+00         1    1         1    284668  0.1333332948E+00  0.5000000001E+00  0.1017457153E-03  0.7069999994E+02  0.9975000000E+02 -0.8999999998E+01        30
      18       1  0.1800000000E+00         2    2         1    323868  0.1333332304E+00  0.4999999851E+00  0.6667596466E+00  0.7069999985E+02  0.9974999998E+02 -0.9500000036E+01        34
      18       1  0.1800000000E+00         3    3         1    353268  0.1333313234E+00  0.4999998362E+00  0.3334183570E+00  0.7069999699E+02  0.9974999975E+02 -0.9999999963E+01        37
      19       1  0.1900000000E+00         1    1         1    284668  0.1333332945E+00  0.5000000001E+00  0.1017468384E-03  0.7069999994E+02  0.9975000000E+02 -0.8999999998E+01        30
      19       1  0.1900000000E+00         2    2         1    323868  0.1333332265E+00  0.4999999842E+00  0.6667596326E+00  0.7069999984E+02  0.9974999998E+02 -0.9500000038E+01        34
      19       1  0.1900000000E+00         3    3         1    353268  0.1333312136E+00  0.4999998271E+00  0.3334183713E+00  0.7069999682E+02  0.9974999974E+02 -0.9999999961E+01        37
      20       1  0.2000000000E+00         1    1         1    284668  0.1333332942E+00  0.5000000001E+00  0.1017479615E-03  0.7069999994E+02  0.9975000000E+02 -0.8999999998E+01        30
      20       1  0.2000000000E+00         2    2         1    323868  0.1333332227E+00  0.4999999834E+00  0.6667596185E+00  0.7069999983E+02  0.9974999998E+02 -0.9500000041E+01        34
      20       1  0.2000000000E+00         3    3         1    353268  0.1333311038E+00  0.4999998180E+00  0.3334183856E+00  0.7069999666E+02  0.9974999973E+02 -0.9999999959E+01        37
      21       1  0.2100000000E+00         1    1         1    284668  0.1333332939E+00  0.5000000001E+00  0.1017490845E-03  0.7069999994E+02  0.9975000000E+02 -0.8999999998E+01        30
      21       1  0.2100000000E+00         2    2         1    323868  0.1333332188E+00  0.4999999826E+00  0.6667596044E+00  0.7069999983E+02  0.9974999997E+02 -0.9500000043E+01        34
      21       1  0.2100000000E+00         3    3         1    353268  0.1333309940E+00  0.4999998089E+00  0.3334183998E+00  0.7069999649E+02  0.9974999971E+02 -0.9999999957E+01        37
      22       1  0.2200000000E+00         1    1         1    284668  0.1333332936E+00  0.5000000001E+00  0.1017502076E-03  0.7069999994E+02  0.9975000000E+02 -0.8999999998E+01        30
      22       1  0.2200000000E+00         2    2         1    323868  0.1333332149E+00  0.4999999817E+00  0.6667595903E+00  0.7069999982E+02  0.9974999997E+02 -0.9500000045E+01        34
      22       1  0.2200000000E+00         3    3         1    353268  0.1333308842E+00  0.4999997998E+00  0.3334184141E+00  0.7069999633E+02  0.9974999970E+02 -0.9999999955E+01        37
      23       1  0.2300000000E+00         1    1         1    284668  0.1333332933E+00  0.5000000001E+00  0.1017513307E-03  0.7069999994E+02  0.9975000000E+02 -0.8999999997E+01        30
      23       1  0.2300000000E+00         2    2         1    323868  0.1333332111E+00  0.4999999809E+00  0.6667595763E+00  0.7069999982E+02  0.9974999997E+02 -0.9500000047E+01        34
      23       1  0.2300000000E+00         3    3         1    353268  0.1333307743E+00  0.4999997907E+00  0.3334184284E+00  0.7069999616E+02  0.9974999969E+02 -0.9999999952E+01        37
      24       1  0.2400000000E+00         1    1         1    284668  0.1333332930E+00  0.5000000001E+00  0.1017524537E-03  0.7069999994E+02  0.9975000000E+02 -0.8999999997E+01        30
      24       1  0.2400000000E+00         2    2         1    323868  0.1333332072E+00  0.4999999801E+00  0.6667595622E+00  0.7069999981E+02  0.9974999997E+02 -0.9500000049E+01        34
      24       1  0.2400000000E+00         3    3         1    353268  0.1333306645E+00  0.4999997816E+00  0.3334184427E+00  0.7069999600E+02  0.9974999967E+02 -0.9999999950E+01        37
      25       1  0.2500000000E+00         1    1         1    284668  0.1333332927E+00  0.5000000001E+00  0.1017535768E-03  0.7069999994E+02  0.9975000000E+02 -0.8999999997E+01        30
      25       1  0.2500000000E+00         2    2         1    323868  0.1333332033E+00  0.4999999792E+00  0.6667595481E+00  0.7069999980E+02  0.9974999997E+02 -0.9500000051E+01        34
      25       1  0.2500000000E+00         3    3         1    353268  0.1333305547E+00  0.4999997725E+00  0.3334184570E+00  0.7069999583E+02  0.9974999966E+02 -0.9999999948E+01        37
      26       1  0.2600000000E+00         1    1         1    284668  0.1333332924E+00  0.5000000001E+00  0.1017546999E-03  0.7069999994E+02  0.9975000000E+02 -0.8999999997E+01        30
      26       1  0.2600000000E+00         2    2         1    323868  0.1333331995E+00  0.4999999784E+00  0.6667595340E+00  0.7069999980E+02  0.9974999997E+02 -0.9500000053E+01        34
      26       1  0.2600000000E+00         3    3         1    353268  0.1333304449E+00  0.4999997634E+00  0.3334184712E+00  0.7069999567E+02  0.9974999965E+02 -0.9999999946E+01        37
      27       1  0.2700000000E+00         1    1         1    284668  0.1333332921E+00  0.5000000001E+00  0.1017558230E-03  0.7069999994E+02  0.9975000000E+02 -0.8999999997E+01        30
      27       1  0.2700000000E+00         2    2         1    323868  0.1333331956E+00  0.4999999776E+00  0.6667595200E+00  0.7069999979E+02  0.9974999997E+02 -0.9500000055E+01        34
      27       1  0.2700000000E+00         3    3         1    353268  0.1333303351E+00  0.4999997543E+00  0.3334184855E+00  0.7069999550E+02  0.9974999963E+02 -0.9999999944E+01        37
      28       1  0.2800000000E+00         1    1         1    284668  0.1333332919E+00  0.5000000001E+00  0.1017569460E-03  0.7069999994E+02  0.9975000000E+02 -0.8999999996E+01        30
      28       1  0.2800000000E+00         2    2         1    323868  0.1333331917E+00  0.4999999767E+00  0.6667595059E+00  0.7069999979E+02  0.9974999997E+02 -0.9500000057E+01        34
      28       1  0.2800000000E+00         3    3         1    353268  0.1333302253E+00  0.4999997452E+00  0.3334184998E+00  0.7069999534E+02  0.9974999962E+02 -0.9999999942E+01        37
      29       1  0.2900000000E+00         1    1         1    284668  0.1333332916E+00  0.5000000001E+00  0.1017580691E-03  0.7069999994E+02  0.9975000000E+02 -0.8999999996E+01        30
      29       1  0.2900000000E+00         2    2         1    323868  0.1333331879E+00  0.4999999759E+00  0.6667594918E+00  0.7069999978E+02  0.9974999996E+02 -0.9500000060E+01        34
      29       1  0.2900000000E+00         3    3         1    353268  0.1333301155E+00  0.4999997361E+00  0.3334185141E+00  0.7069999517E+02  0.9974999960E+02 -0.9999999940E+01        37
      30       1  0.3000000000E+00         1    1         1    284668  0.1333332913E+00  0.5000000001E+00  0.1017591922E-03  0.7069999994E+02  0.9975000000E+02 -0.8999999996E+01        30
      30       1  0.3000000000E+00         2    2         1    323868  0.1333331840E+00  0.4999999751E+00  0.6667594777E+00  0.7069999978E+02  0.9974999996E+02 -0.9500000062E+01        34
      30       1  0.3000000000E+00         3    3         1    353268  0.1333300057E+00  0.4999997270E+00  0.3334185284E+00  0.7069999501E+02  0.9974999959E+02 -0.9999999937E+01        37
      31       1  0.3100000000E+00         1    1         1    284668  0.1333332910E+00  0.5000000001E+00  0.1017603152E-03  0.7069999994E+02  0.9975000000E+02 -0.8999999996E+01        30
      31       1  0.3100000000E+00         2    2         1    323868  0.1333331801E+00  0.4999999743E+00  0.6667594637E+00  0.7069999977E+02  0.9974999996E+02 -0.9500000064E+01        34
      31       1  0.3100000000E+00         3    3         1    353268  0.1333298959E+00  0.4999997179E+00  0.3334185426E+00  0.7069999484E+02  0.9974999958E+02 -0.9999999935E+01        37
      32       1  0.3200000000E+00         1    1         1    284668  0.1333332907E+00  0.5000000001E+00  0.1017614383E-03  0.7069999994E+02  0.9975000000E+02 -0.8999999996E+01        30
      32       1  0.3200000000E+00         2    2         1    323868  0.1333331763E+00  0.4999999734E+00  0.6667594496E+00  0.7069999976E+02  0.9974999996E+02 -0.9500000066E+01        34
      32       1  0.3200000000E+00         3    3         1    353268  0.1333297860E+00  0.4999997088E+00  0.3334185569E+00  0.7069999468E+02  0.9974999956E+02 -0.9999999933E+01        37
      33       1  0.3300000000E+00         1    1         1    284668  0.1333332904E+00  0.5000000001E+00  0.1017625614E-03  0.7069999994E+02  0.9975000000E+02 -0.8999999996E+01        30
      33       1  0.3300000000E+00         2    2         1    323868  0.1333331724E+00  0.4999999726E+00  0.6667594355E+00  0.7069999976E+02  0.9974999996E+02 -0.9500000068E+01        34
      33       1  0.3300000000E+00         3    3         1    353268  0.1333296762E+00  0.4999996997E+00  0.3334185712E+00  0.7069999451E+02  0.9974999955E+02 -0.9999999931E+01        37
      34       1  0.3400000000E+00         1    1         1    284668  0.1333332901E+00  0.5000000001E+00  0.1017636845E-03  0.7069999994E+02  0.9975000000E+02 -0.8999999995E+01        30
      34       1  0.3400000000E+00         2    2         1    323868  0.1333331685E+00  0.4999999718E+00  0.6667594214E+00  0.7069999975E+02  0.9974999996E+02 -0.9500000070E+01        34
      34       1  0.3400000000E+00         3    3         1    353268  0.1333295664E+00  0.4999996906E+00  0.3334185855E+00  0.7069999435E+02  0.9974999954E+02 -0.9999999929E+01        37
      35       1  0.3500000000E+00         1    1         1    284668  0.1333332898E+00  0.5000000001E+00  0.1017648075E-03  0.7069999993E+02  0.9975000000E+02 -0.8999999995E+01        30
      35       1  0.3500000000E+00         2    2         1    323868  0.1333331647E+00  0.4999999709E+00  0.6667594074E+00  0.7069999975E+02  0.9974999996E+02 -0.9500000072E+01        34
      35       1  0.3500000000E+00         3    3         1    353268  0.1333294566E+00  0.4999996815E+00  0.3334185997E+00  0.7069999418E+02  0.9974999952E+02 -0.9999999927E+01        37
      36       1  0.3600000000E+00         1    1         1    284668  0.1333332895E+00  0.5000000002E+00  0.1017659306E-03  0.7069999993E+02  0.9975000000E+02 -0.8999999995E+01        30
      36       1  0.3600000000E+00         2    2         1    323868  0.1333331608E+00  0.4999999701E+00  0.6667593933E+00  0.7069999974E+02  0.9974999996E+02 -0.9500000074E+01        34
      36       1  0.3600000000E+00         3    3         1    353268  0.1333293468E+00  0.4999996724E+00  0.3334186140E+00  0.7069999402E+02  0.9974999951E+02 -0.9999999925E+01        37
      37       1  0.3700000000E+00         1    1         1    284668  0.1333332892E+00  0.5000000002E+00  0.1017670537E-03  0.7069999993E+02  0.9975000000E+02 -0.8999999995E+01        30
      37       1  0.3700000000E+00         2    2         1    323868  0.1333331569E+00  0.4999999693E+00  0.6667593792E+00  0.7069999974E+02  0.9974999995E+02 -0.9500000076E+01        34
      37       1  0.3700000000E+00         3    3         1    353268  0.1333292370E+00  0.4999996633E+00  0.3334186283E+00  0.7069999386E+02  0.9974999949E+02 -0.9999999922E+01        37
      38       1  0.3800000000E+00         1    1         1    284668  0.1333332889E+00  0.5000000002E+00  0.1017681768E-03  0.7069999993E+02  0.9975000000E+02 -0.8999999995E+01        30
      38       1  0.3800000000E+00         2    2         1    323868  0.1333331531E+00  0.4999999684E+00  0.6667593651E+00  0.7069999973E+02  0.9974999995E+02 -0.9500000079E+01        34
      38       1  0.3800000000E+00         3    3         1    353268  0.1333291272E+00  0.4999996542E+00  0.3334186426E+00  0.7069999369E+02  0.9974999948E+02 -0.9999999920E+01        37
      39       1  0.3900000000E+00         1    1         1    284668  0.1333332887E+00  0.5000000002E+00  0.1017692998E-03  0.7069999993E+02  0.9975000000E+02 -0.8999999995E+01        30
      39       1  0.3900000000E+00         2    2         1    323868  0.1333331492E+00  0.4999999676E+00  0.6667593511E+00  0.7069999972E+02  0.9974999995E+02 -0.9500000081E+01        34
      39       1  0.3900000000E+00         3    3         1    353268  0.1333290174E+00  0.4999996451E+00  0.3334186569E+00  0.7069999353E+02  0.9974999947E+02 -0.9999999918E+01        37
      40       1  0.4000000000E+00         1    1         1    284668  0.1333332884E+00  0.5000000002E+00  0.1017704229E-03  0.7069999993E+02  0.9975000000E+02 -0.8999999994E+01        30
      40       1  0.4000000000E+00         2    2         1    323868  0.1333331453E+00  0.4999999668E+00  0.6667593370E+00  0.7069999972E+02  0.9974999995E+02 -0.9500000083E+01        34
      40       1  0.4000000000E+00         3    3         1    353268  0.1333289076E+00  0.4999996360E+00  0.3334186711E+00  0.7069999336E+02  0.9974999945E+02 -0.9999999916E+01        37
      41       1  0.4100000000E+00         1    1         1    284668  0.1333332881E+00  0.5000000002E+00  0.1017715460E-03  0.7069999993E+02  0.9975000000E+02 -0.8999999994E+01        30
      41       1  0.4100000000E+00         2    2         1    323868  0.1333331415E+00  0.4999999660E+00  0.6667593229E+00  0.7069999971E+02  0.9974999995E+02 -0.9500000085E+01        34
      41       1  0.4100000000E+00         3    3         1    353268  0.1333287977E+00  0.4999996269E+00  0.3334186854E+00  0.7069999320E+02  0.9974999944E+02 -0.9999999914E+01        37
      42       1  0.4200000000E+00         1    1         1    284668  0.1333332878E+00  0.5000000002E+00  0.1017726690E-03  0.7069999993E+02  0.9975000000E+02 -0.8999999994E+01        30
      42       1  0.4200000000E+00         2    2         1    323868  0.1333331376E+00  0.4999999651E+00  0.6667593088E+00  0.7069999971E+02  0.9974999995E+02 -0.9500000087E+01        34
      42       1  0.4200000000E+00         3    3         1    353268  0.1333286879E+00  0.4999996178E+00  0.3334186997E+00  0.7069999303E+02  0.9974999943E+02 -0.9999999912E+01        37
      43       1  0.4300000000E+00         1    1         1    284668  0.1333332875E+00  0.5000000002E+00  0.1017737921E-03  0.7069999993E+02  0.9975000000E+02 -0.8999999994E+01        30
      43       1  0.4300000000E+00         2    2         1    323868  0.1333331337E+00  0.4999999643E+00  0.6667592947E+00  0.7069999970E+02  0.9974999995E+02 -0.9500000089E+01        34
      43       1  0.4300000000E+00         3    3         1    353268  0.1333285781E+00  0.4999996087E+00  0.3334187140E+00  0.7069999287E+02  0.9974999941E+02 -0.9999999910E+01        37
      44       1  0.4400000000E+00         1    1         1    284668  0.1333332872E+00  0.5000000002E+00  0.1017749152E-03  0.7069999993E+02  0.9975000000E+02 -0.8999999994E+01        30
      44       1  0.4400000000E+00         2    2         1    323868  0.1333331299E+00  0.4999999635E+00  0.6667592807E+00  0.7069999969E+02  0.9974999995E+02 -0.9500000091E+01        34
      44       1  0.4400000000E+00         3    3         1    353268  0.1333284683E+00  0.4999995996E+00  0.3334187283E+00  0.7069999270E+02  0.9974999940E+02 -0.9999999907E+01        37
      45       1  0.4500000000E+00         1    1         1    284668  0.1333332869E+00  0.5000000002E+00  0.1017760383E-03  0.7069999993E+02  0.9975000000E+02 -0.8999999994E+01        30
      45       1  0.4500000000E+00         2    2         1    323868  0.1333331260E+00  0.4999999626E+00  0.6667592666E+00  0.7069999969E+02  0.9974999994E+02 -0.9500000093E+01        34
      45       1  0.4500000000E+00         3    3         1    353268  0.1333283585E+00  0.4999995905E+00  0.3334187425E+00  0.7069999254E+02  0.9974999939E+02 -0.9999999905E+01        37
      46       1  0.4600000000E+00         1    1         1    284668  0.1333332866E+00  0.5000000002E+00  0.1017771613E-03  0.7069999993E+02  0.9975000000E+02 -0.8999999993E+01        30
      46       1  0.4600000000E+00         2    2         1    323868  0.1333331221E+00  0.4999999618E+00  0.6667592525E+00  0.7069999968E+02  0.9974999994E+02 -0.9500000095E+01        34
      46       1  0.4600000000E+00         3    3         1    353268  0.1333282487E+00  0.4999995814E+00  0.3334187568E+00  0.7069999237E+02  0.9974999937E+02 -0.9999999903E+01        37
      47       1  0.4700000000E+00         1    1         1    284668  0.1333332863E+00  0.5000000002E+00  0.1017782844E-03  0.7069999993E+02  0.9975000000E+02 -0.8999999993E+01        30
      47       1  0.4700000000E+00         2    2         1    323868  0.1333331183E+00  0.4999999610E+00  0.6667592384E+00  0.7069999968E+02  0.9974999994E+02 -0.9500000098E+01        34
      47       1  0.4700000000E+00         3    3         1    353268  0.1333281389E+00  0.4999995723E+00  0.3334187711E+00  0.7069999221E+02  0.9974999936E+02 -0.9999999901E+01        37
      48       1  0.4800000000E+00         1    1         1    284668  0.1333332860E+00  0.5000000002E+00  0.1017794075E-03  0.7069999993E+02  0.9975000000E+02 -0.8999999993E+01        30
      48       1  0.4800000000E+00         2    2         1    323868  0.1333331144E+00  0.4999999601E+00  0.6667592244E+00  0.7069999967E+02  0.9974999994E+02 -0.9500000100E+01        34
      48       1  0.4800000000E+00         3    3         1    353268  0.1333280291E+00  0.4999995632E+00  0.3334187854E+00  0.7069999204E+02  0.9974999934E+02 -0.9999999899E+01        37
      49       1  0.4900000000E+00         1    1         1    284668  0.1333332858E+00  0.5000000002E+00  0.1017805306E-03  0.7069999993E+02  0.9975000000E+02 -0.8999999993E+01        30
      49       1  0.4900000000E+00         2    2         1    323868  0.1333331105E+00  0.4999999593E+00  0.6667592103E+00  0.7069999967E+02  0.9974999994E+02 -0.9500000102E+01        34
      49       1  0.4900000000E+00         3    3         1    353268  0.1333279193E+00  0.4999995541E+00  0.3334187996E+00  0.7069999188E+02  0.9974999933E+02 -0.9999999897E+01        37
      50       1  0.5000000000E+00         1    1         1    284668  0.1333332855E+00  0.5000000002E+00  0.1017816536E-03  0.7069999993E+02  0.9975000000E+02 -0.8999999993E+01        30
      50       1  0.5000000000E+00         2    2         1    323868  0.1333331067E+00  0.4999999585E+00  0.6667591962E+00  0.7069999966E+02  0.9974999994E+02 -0.9500000104E+01        34
      50       1  0.5000000000E+00         3    3         1    353268  0.1333278094E+00  0.4999995450E+00  0.3334188139E+00  0.7069999171E+02  0.9974999932E+02 -0.9999999895E+01        37
      51       1  0.5100000000E+00         1    1         1    284668  0.1333332852E+00  0.5000000002E+00  0.1017827767E-03  0.7069999993E+02  0.9975000000E+02 -0.8999999993E+01        30
      51       1  0.5100000000E+00         2    2         1    323868  0.1333331028E+00  0.4999999576E+00  0.6667591821E+00  0.7069999965E+02  0.9974999994E+02 -0.9500000106E+01        34
      51       1  0.5100000000E+00         3    3         1    353268  0.1333276996E+00  0.4999995359E+00  0.3334188282E+00  0.7069999155E+02  0.9974999930E+02 -0.9999999892E+01        37
      52       1  0.5200000000E+00         1    1         1    284668  0.1333332849E+00  0.5000000002E+00  0.1017838998E-03  0.7069999993E+02  0.9975000000E+02 -0.8999999992E+01        30
      52       1  0.5200000000E+00         2    2         1    323868  0.1333330989E+00  0.4999999568E+00  0.6667591681E+00  0.7069999965E+02  0.9974999994E+02 -0.9500000108E+01        34