# File generated by Flopy version 3.8.2 on 01/09/2025 at 15:48:55.
BEGIN options
  SAVE_FLOWS
  SAVE_SPECIFIC_DISCHARGE
END options

BEGIN griddata
  icelltype
    CONSTANT  0
  k  LAYERED
    INTERNAL  FACTOR  1.0
      9.28525454E-05  9.28525454E-05  9.28525454E-05  9.28525454E-05  9.28525454E-05  9.28525454E-05  9.28525454E-05  9.28525454E-05  9.28525454E-05  9.28525454E-05  9.28525454E-05  9.28525454E-05  9.28525454E-05  9.28525454E-05  9.28525454E-05  9.28525454E-05  9.28525454E-05  9.28525454E-05  9.28525454E-05  9.28525454E-05  9.28525454E-05  9.28525454E-05  9.28525454E-05  9.28525454E-05  9.28525454E-05  9.28525454E-05  9.28525454E-05  9.28525454E-05  2.25989399E-04  2.73569394E-04  3.61965504E-04  3.74887481E-04  3.58196236E-04  2.96848036E-04  2.90390030E-04  3.30085503E-04  3.45592228E-04  3.47039801E-04  2.84734360E-04  2.29084069E-04  2.24165499E-04  2.35531034E-04  1.92913862E-04  1.73211661E-04  1.24916511E-04  8.67142205E-05  5.33300052E-05  3.68025098E-05  3.06010193E-05  3.13826977E-05  9.28525454E-05  9.28525454E-05  9.28525454E-05  9.28525454E-05  9.28525454E-05  9.28525454E-05  2.68442262E-04  3.60914260E-04  4.76600211E-04  6.74670973E-04  9.33179052E-04       0.00123417       0.00134631       0.00107865  8.87063875E-04  8.12280665E-04  6.90103382E-04  6.62239559E-04  6.75345032E-04  6.41990344E-04  6.17178116E-04  5.15918567E-04  3.11195401E-04  2.43983431E-04  1.63977906E-04  1.19040908E-04  8.48627569E-05  6.84708132E-05  6.61666479E-05  6.49875924E-05  5.89862141E-05  5.54720665E-05  5.74133250E-05  5.68302471E-05  7.27941216E-05  9.31053400E-05  1.26263293E-04  1.66994446E-04  1.78333765E-04  2.33526773E-04  2.46546922E-04  3.26377726E-04  3.58591311E-04  3.28303239E-04  2.77467443E-04  2.34022925E-04  1.90178620E-04  1.34845161E-04  1.09386337E-04  9.13212329E-05  8.16923478E-05  8.11471269E-05  7.68618293E-05  7.79096175E-05  7.11885778E-05  6.72473021E-05  7.71277826E-05  7.89852168E-05  7.24618352E-05  6.83366767E-05  6.22768707E-05  7.06165534E-05  8.18114595E-05  1.02501173E-04  1.04107334E-04  8.07242241E-05  6.18964913E-05  4.62544989E-05  3.36161081E-05  2.63731865E-05  2.41642581E-05  1.93976151E-05  1.49249376E-05  9.28525454E-05  9.28525454E-05  9.28525454E-05  9.28525454E-05  9.28525454E-05  9.28525454E-05  9.28525454E-05  9.28525454E-05  9.28525454E-05  9.28525454E-05  9.28525454E-05  9.28525454E-05  9.28525454E-05  9.28525454E-05  9.28525454E-05  9.28525454E-05  1.00747415E-04
      2.70031905E-05  3.61861791E-05  9.28525454E-05  9.28525454E-05  9.28525454E-05  9.28525454E-05  9.28525454E-05  9.28525454E-05  9.28525454E-05  9.28525454E-05  9.28525454E-05  9.28525454E-05  9.28525454E-05  9.28525454E-05  9.28525454E-05  9.28525454E-05  9.28525454E-05  9.28525454E-05  9.28525454E-05  9.28525454E-05  9.28525454E-05  9.28525454E-05  9.28525454E-05  9.28525454E-05  9.28525454E-05  9.28525454E-05  1.61647788E-04  1.72392695E-04  1.93774885E-04  2.54377792E-04  3.26480768E-04  3.95271676E-04  3.37362584E-04  2.52500759E-04  2.40385887E-04  2.80857387E-04  2.73327105E-04  2.56077938E-04  2.31719116E-04  1.87757168E-04  1.72512741E-04  1.60929696E-04  1.18733111E-04  1.05398353E-04  8.24360533E-05  6.90699574E-05  4.74332204E-05  3.97770218E-05  4.10970848E-05  4.68927157E-05  6.43519634E-05  9.72351943E-05  9.28525454E-05  1.64550353E-04  9.28525454E-05  2.64872902E-04  3.70721225E-04  4.72813912E-04  6.18844975E-04  7.74742348E-04       0.00105481       0.00126195       0.00140999       0.00128239       0.00103040  9.04867376E-04  7.57453795E-04  6.71760525E-04  7.02929336E-04  6.44172471E-04  6.05742540E-04  4.51228512E-04  3.25512745E-04  2.23434351E-04  1.45634822E-04  9.27798102E-05  6.30659803E-05  5.31189849E-05  4.89925176E-05  4.85406657E-05  4.42189014E-05  4.55694475E-05  4.64255043E-05  4.77326825E-05  6.51896226E-05  7.19146292E-05  1.05293907E-04  1.52625678E-04  1.86468128E-04  2.27020354E-04  3.14028614E-04  4.04363499E-04  4.24575063E-04  3.99393809E-04  3.37750626E-04  2.84314500E-04  2.43194453E-04  1.79733543E-04  1.46306752E-04  1.29523851E-04  1.11149435E-04  9.83589908E-05  9.49758026E-05  1.01677653E-04  9.29857105E-05  8.31805927E-05  8.77821281E-05  8.38332181E-05  6.89715925E-05  6.62011648E-05  6.08991492E-05  6.68921385E-05  8.39383998E-05  1.03606968E-04  9.18812289E-05  7.75469130E-05  6.64837155E-05  5.89595372E-05  4.93957772E-05  4.11199684E-05  3.74179152E-05  2.94130588E-05  2.30118656E-05  9.28525454E-05  9.28525454E-05  9.28525454E-05  9.28525454E-05  9.28525454E-05  9.28525454E-05  9.28525454E-05  9.28525454E-05  9.28525454E-05  9.28525454E-05  9.28525454E-05  9.28525454E-05  9.28525454E-05  9.28525454E-05  9.28525454E-05  9.28525454E-05  1.02662122E-04
      3.67246864E-05  5.15205890E-05  9.28525454E-05  9.28525454E-05  9.28525454E-05  9.28525454E-05  9.28525454E-05  9.28525454E-05  9.28525454E-05  9.28525454E-05  9.28525454E-05  9.28525454E-05  9.28525454E-05  9.28525454E-05  9.28525454E-05  9.28525454E-05  9.28525454E-05  9.28525454E-05  9.28525454E-05  9.28525454E-05  9.28525454E-05  9.28525454E-05  9.28525454E-05  9.28525454E-05  9.28525454E-05  1.70071986E-04  1.46718646E-04  1.65821823E-04  2.02256719E-04  2.44107627E-04  2.88859519E-04  3.25396253E-04  3.10799476E-04  2.33324302E-04  2.16296331E-04  2.31388608E-04  2.11091854E-04  1.84631857E-04  1.64093173E-04  1.50475377E-04  1.15860214E-04  1.01222023E-04  8.03769163E-05  6.34926433E-05  5.41267298E-05  4.35228348E-05  3.35753115E-05  3.56728368E-05  4.67357401E-05  6.48852093E-05  8.23846589E-05  1.24105699E-04  1.69033485E-04  2.12930801E-04  2.91179902E-04  3.57952875E-04  4.22762993E-04  5.60135889E-04  7.34815038E-04  8.80256830E-04       0.00106112       0.00116795       0.00128021       0.00135833       0.00115163  9.52947020E-04  8.21018857E-04  7.36685551E-04  6.54813710E-04  6.10592327E-04  5.30604615E-04  3.99715372E-04  3.19146039E-04  2.11841451E-04  1.37075937E-04  8.67699354E-05  5.75966146E-05  4.33004818E-05  4.26534670E-05  4.00525470E-05  3.53578036E-05  3.50969205E-05  3.90815156E-05  4.65359927E-05  5.88668447E-05  6.48302344E-05  8.84654170E-05  1.19793703E-04  1.73183802E-04  2.43788356E-04  3.27119634E-04  4.31749628E-04  4.82498005E-04  4.16899483E-04  3.59673895E-04  3.32550054E-04  2.93993531E-04  2.26402163E-04  1.95082197E-04  1.66875309E-04  1.49062109E-04  1.32155767E-04  1.15496331E-04  1.18252392E-04  1.00613934E-04  8.86900751E-05  8.40714010E-05  7.86997233E-05  6.54858287E-05  7.07876453E-05  6.89537230E-05  7.44157736E-05  8.90206062E-05  1.04718254E-04  9.70671923E-05  7.91504222E-05  7.46999962E-05  7.37121246E-05  8.55113971E-05  7.04592573E-05  5.73987022E-05  5.04094301E-05  3.64409123E-05  9.28525454E-05  9.28525454E-05  9.28525454E-05  9.28525454E-05  9.28525454E-05  9.28525454E-05  9.28525454E-05  9.28525454E-05  9.28525454E-05  9.28525454E-05  9.28525454E-05  9.28525454E-05  9.28525454E-05  9.28525454E-05  9.28525454E-05  9.28525454E-05  9.28525454E-05
      4.26576821E-05  6.83107209E-05  9.27129068E-05  9.28525454E-05  9.28525454E-05  9.28525454E-05  9.28525454E-05  9.28525454E-05  9.28525454E-05  9.28525454E-05  9.28525454E-05  9.28525454E-05  9.28525454E-05  9.28525454E-05  9.28525454E-05  9.28525454E-05  9.28525454E-05  9.28525454E-05  9.28525454E-05  9.28525454E-05  9.28525454E-05  9.28525454E-05  9.28525454E-05  9.28525454E-05  1.67359992E-04  1.53627962E-04  1.48007037E-04  1.48848926E-04  1.82013343E-04  2.12113876E-04  2.34927582E-04  2.64696724E-04  2.52291810E-04  2.20413704E-04  1.86993087E-04  1.93936860E-04  1.75522690E-04  1.37722818E-04  1.20462412E-04  1.10509065E-04  8.31075618E-05  7.00809738E-05  5.45572719E-05  4.21093177E-05  3.71650022E-05  2.70461852E-05  2.28049877E-05  2.82771765E-05  3.88316810E-05  6.75800095E-05  1.06708134E-04  1.39139748E-04  1.74292671E-04  2.27970267E-04  2.51693772E-04  3.00652635E-04  3.85998415E-04  5.23095473E-04  7.23063431E-04  8.24132023E-04  8.18707209E-04  8.71220504E-04  9.26746907E-04       0.00106408  9.88169223E-04  9.03208749E-04  7.90942588E-04  7.04681544E-04  5.41510417E-04  5.06440943E-04  4.28136976E-04  3.17992654E-04  2.49043814E-04  1.68554688E-04  1.05929757E-04  7.07224667E-05  5.31351427E-05  4.20276086E-05  3.86441551E-05  3.57675120E-05  3.19007832E-05  3.07001612E-05  3.45617841E-05  4.52177762E-05  5.59486819E-05  6.87804933E-05  7.95303186E-05  1.02085725E-04  1.57082014E-04  2.22157557E-04  3.01236329E-04  4.07266361E-04  4.31074171E-04  3.83787819E-04  3.51700396E-04  3.46533584E-04  3.24490404E-04  2.76498380E-04  2.65027081E-04  2.46405929E-04  2.11033919E-04  1.74686276E-04  1.47395495E-04  1.23198860E-04  1.03416148E-04  8.29299994E-05  7.09191172E-05  6.34077209E-05  5.68146499E-05  6.42895340E-05  7.40563237E-05  7.99182683E-05  9.67811391E-05  1.17613254E-04  1.17012703E-04  1.04060994E-04  9.99837515E-05  1.17489092E-04  1.30501889E-04  1.12879213E-04  9.76251148E-05  9.04975675E-05  7.42611844E-05  9.28525454E-05  9.28525454E-05  9.28525454E-05  9.28525454E-05  9.28525454E-05  9.28525454E-05  9.28525454E-05  9.28525454E-05  9.28525454E-05  9.28525454E-05  9.28525454E-05  9.28525454E-05  9.28525454E-05  9.28525454E-05  9.28525454E-05  9.28525454E-05  1.47603518E-04
      4.81566523E-05  6.80297417E-05  1.04465611E-04  1.30219493E-04  1.35946719E-04  9.28525454E-05  9.28525454E-05  9.28525454E-05  9.28525454E-05  9.28525454E-05  9.28525454E-05  9.28525454E-05  9.28525454E-05  9.28525454E-05  9.28525454E-05  9.28525454E-05  9.28525454E-05  9.28525454E-05  9.28525454E-05  9.28525454E-05  9.28525454E-05  9.28525454E-05  9.28525454E-05  1.43372313E-04  1.37945736E-04  1.35827286E-04  1.44020679E-04  1.51940575E-04  1.69389174E-04  1.89799698E-04  2.10381980E-04  2.25951563E-04  2.13376869E-04  1.90511752E-04  1.59068382E-04  1.37172293E-04  1.28360341E-04  1.02893568E-04  8.18198137E-05  7.75688831E-05  6.42407767E-05  5.08261381E-05  3.96810996E-05  2.92288822E-05  2.48664978E-05  1.84341085E-05  1.73382051E-05  2.18222783E-05  3.24735615E-05  5.99707278E-05  9.53419016E-05  1.16482663E-04  1.45024563E-04  1.80725535E-04  1.84607330E-04  2.20489464E-04  3.05146585E-04  4.22194991E-04  5.79719205E-04  6.52938123E-04  6.47270331E-04  7.01680923E-04  7.20001139E-04  7.76445912E-04  8.41887588E-04  8.12785609E-04  7.49454257E-04  6.20405635E-04  4.75198037E-04  4.22651605E-04  3.62390996E-04  2.67264279E-04  1.92029676E-04  1.23667775E-04  8.39161920E-05  6.46098069E-05  5.50159993E-05  4.74372828E-05  3.96921239E-05  3.16662765E-05  2.83207692E-05  2.76720540E-05  3.15646732E-05  3.90682587E-05  4.91386721E-05  6.76450400E-05  7.22192657E-05  8.77019756E-05  1.26149112E-04  1.75331716E-04  2.10547896E-04  2.81574026E-04  3.34893436E-04  3.26306781E-04  3.18518024E-04  3.51699624E-04  3.55087324E-04  3.63308098E-04  3.66308558E-04  3.47351056E-04  3.20603202E-04  2.50782368E-04  1.86437727E-04  1.51795257E-04  1.09348812E-04  7.42591460E-05  5.99610493E-05  5.93614167E-05  5.96559600E-05  6.63350425E-05  6.55458933E-05  7.52764130E-05  8.41106406E-05  1.10242693E-04  1.18424810E-04  1.30327126E-04  1.35315311E-04  1.45125311E-04  1.78627417E-04  1.62039166E-04  1.45222781E-04  1.36630719E-04  1.20178185E-04  9.28525454E-05  9.28525454E-05  9.28525454E-05  9.28525454E-05  9.28525454E-05  9.28525454E-05  9.28525454E-05  9.28525454E-05  9.28525454E-05  9.28525454E-05  9.28525454E-05  9.28525454E-05  9.28525454E-05  9.28525454E-05  9.28525454E-05  9.28525454E-05  1.72431502E-04
      4.60607022E-05  6.32917721E-05  9.48246136E-05  1.22440932E-04  1.45818584E-04  1.99010417E-04  2.39045161E-04  9.28525454E-05  9.28525454E-05  9.28525454E-05  9.28525454E-05  9.28525454E-05  9.28525454E-05  9.28525454E-05  9.28525454E-05  9.28525454E-05  9.28525454E-05  9.28525454E-05  9.28525454E-05  9.28525454E-05  9.28525454E-05  9.28525454E-05  1.15928673E-04  1.28488867E-04  1.32761572E-04  1.33651091E-04  1.28777620E-04  1.27392128E-04  1.46732259E-04  1.94185514E-04  2.43065785E-04  2.21267210E-04  1.80079319E-04  1.41196879E-04  1.13214960E-04  1.00159111E-04  8.31042769E-05  7.34689189E-05  5.89824579E-05  5.05832433E-05  4.44869813E-05  3.35457225E-05  2.33770482E-05  1.92266279E-05  1.60950282E-05  1.40810303E-05  1.44842278E-05  1.88358953E-05  2.88834782E-05  5.18360091E-05  9.28525454E-05  9.28525454E-05  1.06381054E-04  1.32683391E-04  1.42346651E-04  1.56920149E-04  2.27262638E-04  3.11451938E-04  4.48823439E-04  4.85240403E-04  4.60355239E-04  5.17803205E-04  5.17778474E-04  5.16235597E-04  6.36653459E-04  6.61890274E-04  5.64183962E-04  5.04564143E-04  4.19610057E-04  3.51726848E-04  2.70249612E-04  2.04414224E-04  1.52233383E-04  1.03611177E-04  7.05758598E-05  6.08240396E-05  5.45712907E-05  5.31562660E-05  4.26270621E-05  3.18855857E-05  2.75944743E-05  2.77321555E-05  3.25761590E-05  3.63652908E-05  4.70547132E-05  6.07090159E-05  6.23528159E-05  7.08439383E-05  9.59168637E-05  1.26616883E-04  1.50483720E-04  1.97327870E-04  2.34471986E-04  2.45383778E-04  2.82920365E-04  3.17615106E-04  4.39443786E-04  5.29944960E-04  5.29039201E-04  5.07834653E-04  4.56062619E-04  3.32479775E-04  2.36128907E-04  1.90743134E-04  1.20406941E-04  7.80562880E-05  5.29327969E-05  4.44255281E-05  5.20044053E-05  5.92810436E-05  5.47480920E-05  6.16819074E-05  6.92581347E-05  1.03623237E-04  1.29272806E-04  1.44158000E-04  1.47670303E-04  1.75529339E-04  2.22105608E-04  2.19572771E-04  1.91079667E-04  1.84446058E-04  9.28525454E-05  9.28525454E-05  9.28525454E-05  9.28525454E-05  9.28525454E-05  9.28525454E-05  9.28525454E-05  9.28525454E-05  9.28525454E-05  9.28525454E-05  9.28525454E-05  9.28525454E-05  9.28525454E-05  9.28525454E-05  9.28525454E-05  9.28525454E-05  1.65524595E-04  1.63412475E-04
      5.14925392E-05  6.97004357E-05  9.98381822E-05  1.23560486E-04  1.52429153E-04  1.98448125E-04  2.35162684E-04  2.35441187E-04  1.98768242E-04  9.28525454E-05  9.28525454E-05  9.28525454E-05  9.28525454E-05  9.28525454E-05  9.28525454E-05  9.28525454E-05  9.28525454E-05  9.28525454E-05  9.28525454E-05  9.28525454E-05  9.28525454E-05  9.41335403E-05  1.19746231E-04  1.22030251E-04  1.35814237E-04  1.36690363E-04  1.31729495E-04  1.24611170E-04  1.50336907E-04  1.76359237E-04  2.28322589E-04  1.88637111E-04  1.37554317E-04  1.08520487E-04  9.20122668E-05  8.20338099E-05  7.18472296E-05  6.44980331E-05  5.06828102E-05  4.06018906E-05  3.11820790E-05  2.18946612E-05  1.54960267E-05  1.29180936E-05  1.12149919E-05  1.22849151E-05  1.60790433E-05  1.86495155E-05  9.28525454E-05  9.28525454E-05  9.28525454E-05  9.28525454E-05  9.28525454E-05  9.86381188E-05  1.20359886E-04  1.35020646E-04  1.84012985E-04  2.44288473E-04  3.40748153E-04  3.69134137E-04  3.70463660E-04  3.57804935E-04  3.65028212E-04  3.57799631E-04  4.47893279E-04  5.43767582E-04  4.56145499E-04  4.40485027E-04  3.83633413E-04  3.08446841E-04  2.17376127E-04  1.70354091E-04  1.37386099E-04  9.29022348E-05  6.58509479E-05  5.64433966E-05  4.95773618E-05  5.30851687E-05  4.19712578E-05  3.07079486E-05  2.52063107E-05  2.48528231E-05  2.75035801E-05  3.15169178E-05  3.93829122E-05  4.96073095E-05  5.02546400E-05  5.78073309E-05  7.21638607E-05  9.04324091E-05  1.03517310E-04  1.27271197E-04  1.71825601E-04  2.02348232E-04  2.78459928E-04  3.44216069E-04  4.76603612E-04  6.38227144E-04  6.77513316E-04  6.67528488E-04  5.68454116E-04  4.47985249E-04  2.96327662E-04  2.10524087E-04  1.42161255E-04  7.62720162E-05  4.96192392E-05  3.75421515E-05  3.79837597E-05  4.33647113E-05  4.87369763E-05  5.80449420E-05  7.01642018E-05  1.04879517E-04  1.36614218E-04  1.62994424E-04  1.70220596E-04  1.87972408E-04  2.39362425E-04  2.67509125E-04  2.46350339E-04  2.12572937E-04  9.28525454E-05  9.28525454E-05  9.28525454E-05  9.28525454E-05  9.28525454E-05  9.28525454E-05  9.28525454E-05  9.28525454E-05  9.28525454E-05  9.28525454E-05  9.28525454E-05  9.28525454E-05  9.28525454E-05  9.28525454E-05  1.18759904E-04  1.31970530E-04  1.23298322E-04  1.18714405E-04
      5.70786928E-05  7.19372941E-05  9.77268895E-05  1.29277349E-04  1.46478334E-04  1.93836062E-04  2.22672946E-04  2.17968716E-04  2.30068634E-04  2.39444305E-04  1.90845153E-04  9.28525454E-05  9.28525454E-05  9.28525454E-05  9.28525454E-05  9.28525454E-05  8.57615041E-05  8.48137606E-05  7.90937811E-05  7.91144522E-05  9.07200150E-05  1.03094291E-04  1.17576779E-04  1.28642802E-04  1.48042792E-04  1.42805947E-04  1.32035678E-04  1.26513147E-04  1.38259688E-04  1.48216004E-04  1.78288834E-04  1.60064462E-04  1.13651240E-04  8.63821041E-05  7.33187921E-05  7.13466404E-05  6.02456679E-05  5.04504038E-05  3.53508553E-05  2.87717169E-05  2.20191051E-05  1.64114164E-05  1.24484063E-05  1.00150094E-05  1.04260273E-05  1.27218247E-05  1.57975523E-05  9.28525454E-05  9.28525454E-05  9.28525454E-05  9.28525454E-05  9.28525454E-05  9.28525454E-05  9.28525454E-05  1.03179391E-04  1.19438774E-04  1.54353209E-04  1.88527785E-04  2.62557688E-04  2.91951247E-04  3.05201201E-04  3.26214539E-04  3.33049008E-04  2.94491699E-04  3.37991384E-04  4.35196332E-04  4.40040308E-04  4.47919589E-04  3.56619695E-04  2.68307305E-04  2.23765166E-04  1.74177124E-04  1.26350315E-04  8.85712563E-05  6.44806855E-05  5.47536826E-05  4.71998544E-05  4.62185567E-05  4.38474568E-05  2.82113402E-05  2.12466768E-05  2.16165991E-05  2.16137750E-05  2.53503564E-05  3.19048465E-05  4.21950770E-05  4.29453801E-05  4.86077579E-05  5.48907408E-05  6.95190707E-05  8.37638446E-05  9.55450951E-05  1.49470600E-04  1.86979024E-04  2.68950134E-04  3.79981088E-04  4.78094965E-04  6.28730512E-04  7.36680698E-04  7.95651237E-04  6.69184736E-04  5.17114041E-04  3.76168127E-04  2.42696176E-04  1.44902086E-04  7.40881230E-05  4.98644029E-05  4.13100279E-05  4.26105907E-05  3.94584397E-05  5.34380884E-05  6.30119932E-05  7.13762574E-05  1.01559163E-04  1.45296385E-04  1.81320410E-04  2.00886549E-04  2.02939065E-04  2.19103646E-04  2.50015047E-04  2.55460547E-04  2.19715900E-04  9.28525454E-05  9.28525454E-05  9.28525454E-05  9.28525454E-05  9.28525454E-05  9.28525454E-05  2.63298884E-04  2.69707303E-04  2.42253307E-04  1.97220437E-04  1.65712802E-04  1.62550758E-04  1.33997707E-04  1.16543300E-04  1.05140318E-04  1.05074480E-04  9.72470454E-05  9.16971027E-05
      6.89755305E-05  8.23084407E-05  1.04655323E-04  1.35719059E-04  1.74041302E-04  2.08983955E-04  2.25579246E-04  2.30504665E-04  2.58742935E-04  2.64936017E-04  2.14620282E-04  1.82357798E-04  1.51510361E-04  1.24650238E-04  1.05288184E-04  1.00100239E-04  9.22090728E-05  8.65147028E-05  7.85379593E-05  7.65601341E-05  8.74809730E-05  1.01172801E-04  1.06865070E-04  1.26295807E-04  1.40654240E-04  1.37220798E-04  1.26286378E-04  1.11615678E-04  1.09943642E-04  1.10429983E-04  1.33637225E-04  1.15993925E-04  9.10060376E-05  7.21875552E-05  5.72361486E-05  5.07938931E-05  3.31824065E-05  2.55056687E-05  1.87018650E-05  1.76728595E-05  1.63647415E-05  1.42822490E-05  1.30048892E-05  1.06989163E-05  1.12181816E-05  9.28525454E-05  9.28525454E-05  9.28525454E-05  9.28525454E-05  9.28525454E-05  9.28525454E-05  9.28525454E-05  9.28525454E-05  9.28525454E-05  9.28525454E-05  1.03985385E-04  1.29466481E-04  1.58513352E-04  2.09800227E-04  2.81718130E-04  3.16339412E-04  3.23104250E-04  3.45253170E-04  3.38359159E-04  3.53808322E-04  4.07233496E-04  4.25045918E-04  4.01526954E-04  3.63139204E-04  3.00292542E-04  2.44623574E-04  1.80885937E-04  1.24358041E-04  9.14343036E-05  6.91639061E-05  5.55980411E-05  4.87497671E-05  4.23307590E-05  3.97423601E-05  2.63651088E-05  2.02789053E-05  1.86650840E-05  1.73910359E-05  2.09489712E-05  2.68262973E-05  3.19395101E-05  3.55044246E-05  3.90963652E-05  4.51875016E-05  5.77681198E-05  7.50647955E-05  9.27161643E-05  1.28659894E-04  1.74168327E-04  2.58414594E-04  3.58020874E-04  4.54769049E-04  6.32509936E-04  7.57804834E-04  7.59403615E-04  6.58308150E-04  5.79277319E-04  4.16262113E-04  2.67831229E-04  1.51205744E-04  7.86049034E-05  5.41184104E-05  5.01640101E-05  5.49000228E-05  5.14812897E-05  5.48007746E-05  6.41522475E-05  8.33233707E-05  1.16370810E-04  1.55136292E-04  1.87016597E-04  2.06637732E-04  1.82439406E-04  2.05402788E-04  2.15277319E-04  2.02197435E-04  2.01209054E-04  9.28525454E-05  9.28525454E-05  9.28525454E-05  9.28525454E-05  9.28525454E-05  3.00555765E-04  3.22648534E-04  3.14905950E-04  2.99619702E-04  2.52859340E-04  2.01462718E-04  1.85675041E-04  1.51431614E-04  1.27268333E-04  1.04787147E-04  8.71956891E-05  8.00014957E-05  7.76940096E-05
      8.49502940E-05  9.06269305E-05  1.13179787E-04  1.41080268E-04  1.66568145E-04  2.01935751E-04  2.23714438E-04  2.52170095E-04  2.80899945E-04  2.87166291E-04  2.27933976E-04  1.91387057E-04  1.55265628E-04  1.26741228E-04  1.03960213E-04  9.59340313E-05  8.52468554E-05  8.06088194E-05  7.80556880E-05  7.36168474E-05  8.26678160E-05  9.05163489E-05  9.10749091E-05  1.14831232E-04  1.28505868E-04  1.12029619E-04  1.11060322E-04  1.02751547E-04  8.47931831E-05  7.81721580E-05  8.35296512E-05  7.85261465E-05  6.86348977E-05  5.46975018E-05  4.54869173E-05  3.74996368E-05  2.31560286E-05  1.48982181E-05  1.10378344E-05  1.14231905E-05  1.28886821E-05  1.35005822E-05  1.38290659E-05  1.21696218E-05  9.28525454E-05  9.28525454E-05  9.28525454E-05  9.28525454E-05  9.28525454E-05  9.28525454E-05  9.28525454E-05  9.28525454E-05  9.28525454E-05  9.28525454E-05  9.28525454E-05  9.28525454E-05  1.26880809E-04  1.60153853E-04  1.78538398E-04  2.42267671E-04  2.68508881E-04  2.73448223E-04  2.96039537E-04  2.94745630E-04  2.97327045E-04  3.68124717E-04  4.10223841E-04  3.73818819E-04  3.63509197E-04  2.88589904E-04  2.43726265E-04  1.73339033E-04  1.21905308E-04  8.86994239E-05  6.31001960E-05  4.98673594E-05  4.51222567E-05  3.90695027E-05  3.72363171E-05  2.49548959E-05  1.81148684E-05  1.59920856E-05  1.62317303E-05  2.05669079E-05  2.55668751E-05  2.88895043E-05  3.19760370E-05  3.62989120E-05  4.35501293E-05  5.25037744E-05  6.76219456E-05  9.18794130E-05  1.24285764E-04  1.75345192E-04  2.68586722E-04  3.75115171E-04  4.53305911E-04  6.37683947E-04  7.59692996E-04  7.27830129E-04  6.80217126E-04  6.16231508E-04  4.84129246E-04  3.16882751E-04  1.82384129E-04  9.38204839E-05  5.99926583E-05  5.41228671E-05  5.83561428E-05  5.93811684E-05  5.62340090E-05  7.13223605E-05  1.06217366E-04  1.26739627E-04  1.50123301E-04  1.66245483E-04  1.82423683E-04  1.78568981E-04  1.98025220E-04  1.86574108E-04  1.71064550E-04  1.67740152E-04  1.68525636E-04  9.28525454E-05  9.28525454E-05  9.28525454E-05  3.05008916E-04  3.45102900E-04  3.72717395E-04  3.69985220E-04  3.34601610E-04  2.91859264E-04  2.57887257E-04  2.21395520E-04  1.74356216E-04  1.33159162E-04  1.04988855E-04  9.26910235E-05  7.30588334E-05  6.80802535E-05
      8.14119062E-05  8.90641115E-05  1.01655216E-04  1.22957105E-04  1.50135911E-04  2.01612967E-04  2.32354248E-04  2.39470202E-04  2.75409904E-04  2.76094150E-04  2.06784235E-04  1.78659192E-04  1.56447147E-04  1.37097987E-04  9.57532422E-05  7.28564897E-05  6.88699649E-05  6.76885028E-05  6.03433141E-05  6.67752432E-05  7.13767276E-05  8.09870011E-05  8.75032595E-05  1.13088240E-04  1.13934478E-04  1.00302450E-04  9.42240191E-05  8.10963579E-05  6.32742626E-05  5.96366407E-05  6.04621589E-05  5.25478351E-05  4.86915665E-05  4.13457845E-05  3.39760022E-05  2.64484942E-05  1.57198647E-05  1.06621295E-05  8.70395859E-06  9.97180035E-06  1.19306201E-05  1.51982704E-05  1.58474807E-05  9.28525454E-05  9.28525454E-05  9.28525454E-05  9.28525454E-05  9.28525454E-05  9.28525454E-05  9.28525454E-05  9.28525454E-05  9.28525454E-05  9.28525454E-05  9.28525454E-05  9.28525454E-05  9.28525454E-05  1.34892473E-04  1.64209873E-04  1.89416644E-04  2.22480864E-04  2.32401960E-04  2.30503906E-04  2.37512465E-04  2.50692070E-04  2.80579684E-04  3.42247764E-04  3.82144582E-04  3.60767472E-04  3.39626312E-04  2.65946304E-04  2.22200857E-04  1.72620929E-04  1.33787045E-04  9.22683182E-05  6.44320662E-05  4.89928941E-05  4.11857565E-05  3.85678148E-05  3.57110845E-05  2.39437075E-05  1.81164397E-05  1.59556754E-05  1.70162761E-05  1.98494540E-05  2.27467216E-05  2.56810711E-05  2.86461052E-05  3.59806806E-05  4.54649478E-05  5.23347380E-05  6.34575180E-05  9.21785029E-05  1.24789777E-04  2.05263575E-04  3.46881136E-04  4.37706403E-04  4.93735190E-04  6.79134682E-04  8.12630792E-04  7.97824200E-04  7.77722308E-04  6.71787446E-04  5.32580030E-04  3.30914855E-04  9.28525454E-05  9.28525454E-05  9.28525454E-05  9.28525454E-05  4.94698085E-05  5.33796236E-05  6.28489981E-05  7.98538003E-05  1.04544898E-04  1.23689502E-04  1.31221440E-04  1.37222681E-04  1.24163965E-04  1.45348321E-04  1.75797623E-04  1.89718234E-04  1.83936226E-04  1.81202990E-04  1.87963327E-04  9.28525454E-05  2.33876768E-04  2.84765468E-04  3.58355945E-04  4.49690106E-04  4.56956560E-04  3.97931406E-04  3.82162625E-04  3.91518222E-04  3.42136741E-04  2.54143152E-04  2.03098778E-04  1.61595527E-04  1.14056073E-04  8.91628349E-05  7.22237063E-05  6.47405374E-05
      9.01803633E-05  9.46787588E-05  1.15844123E-04  1.44251336E-04  1.72108064E-04  1.77317419E-04  2.22226841E-04  2.24493576E-04  2.44498981E-04  2.37120968E-04  1.81480742E-04  1.69249094E-04  1.54940362E-04  1.21926457E-04  7.91235734E-05  6.09058360E-05  5.87756532E-05  6.18716909E-05  5.44359864E-05  5.57496985E-05  6.08644563E-05  7.32467791E-05  9.03139333E-05  1.03523619E-04  1.03017914E-04  8.29574111E-05  7.36851789E-05  6.45155270E-05  5.19327958E-05  4.86943466E-05  4.73059005E-05  3.84183280E-05  3.59175276E-05  3.14509620E-05  2.27415523E-05  1.58212808E-05  1.18977338E-05  8.82124609E-06  8.24715414E-06  9.01176101E-06  1.20469687E-05  9.28525454E-05  9.28525454E-05  9.28525454E-05  9.28525454E-05  9.28525454E-05  9.28525454E-05  9.28525454E-05  9.28525454E-05  9.28525454E-05  9.28525454E-05  9.28525454E-05  9.28525454E-05  9.28525454E-05  9.28525454E-05  9.28525454E-05  9.28525454E-05  1.80114714E-04  2.01271694E-04  2.20629193E-04  2.36391164E-04  2.36373645E-04  2.20007027E-04  2.22162557E-04  2.12436794E-04  2.67257970E-04  3.07879259E-04  3.06104452E-04  2.78502888E-04  2.49245694E-04  2.26313064E-04  1.63227687E-04  1.38138526E-04  9.50479914E-05  6.74945852E-05  5.05302320E-05  4.25901508E-05  4.14024320E-05  3.56768712E-05  2.43729743E-05  2.02146381E-05  2.03098555E-05  1.90776436E-05  1.89173681E-05  2.31705759E-05  2.34650202E-05  2.49466226E-05  3.23788942E-05  4.29969956E-05  5.19695297E-05  6.15795934E-05  8.77606377E-05  1.28666533E-04  2.46866553E-04  4.30874248E-04  9.28525454E-05  9.28525454E-05  9.28525454E-05  9.44463969E-04  9.00872884E-04  8.17953823E-04  7.88479245E-04  5.98646461E-04  9.28525454E-05  9.28525454E-05  9.28525454E-05  9.28525454E-05  9.28525454E-05  9.28525454E-05  5.10018361E-05  6.41366125E-05  8.32230715E-05  9.51899208E-05  9.78892619E-05  1.03156679E-04  9.20852362E-05  8.12454594E-05  9.71162295E-05  1.24546404E-04  1.52376109E-04  1.57610658E-04  1.70104947E-04  1.81098172E-04  2.22228915E-04  2.55267926E-04  3.24759505E-04  4.46997682E-04  4.85945241E-04  5.37851453E-04  4.99183050E-04  5.10520069E-04  4.91517573E-04  4.08737265E-04  3.04578388E-04  2.04891375E-04  1.39726932E-04  9.65247512E-05  8.43771221E-05  7.38242208E-05  6.42239919E-05
      1.03548798E-04  1.17695089E-04  1.29737202E-04  1.51715612E-04  1.63778093E-04  1.87042779E-04  2.08869832E-04  2.17443443E-04  2.13590052E-04  1.94196921E-04  1.58655608E-04  1.27059390E-04  1.09721934E-04  7.68651206E-05  5.45949631E-05  4.76983673E-05  4.74401475E-05  4.90334702E-05  4.50146801E-05  4.83722778E-05  5.56456150E-05  6.79777747E-05  9.53210723E-05  1.08933114E-04  9.93220139E-05  7.44609704E-05  6.75838681E-05  5.64104368E-05  4.72255658E-05  4.11078254E-05  3.97798170E-05  2.92448684E-05  2.41988532E-05  2.04743290E-05  1.57087361E-05  1.25071521E-05  9.94682504E-06  8.89947086E-06  8.75605389E-06  9.28525454E-05  9.28525454E-05  9.28525454E-05  9.28525454E-05  9.28525454E-05  9.28525454E-05  9.28525454E-05  9.28525454E-05  9.28525454E-05  9.28525454E-05  9.28525454E-05  9.28525454E-05  9.28525454E-05  9.28525454E-05  9.28525454E-05  9.28525454E-05  9.28525454E-05  9.28525454E-05  1.62448435E-04  1.97951962E-04  1.97019698E-04  2.06131052E-04  1.83340318E-04  1.68943312E-04  1.82836152E-04  1.77364150E-04  2.02034882E-04  2.53145598E-04  2.49526081E-04  2.64376793E-04  2.55074891E-04  2.31103100E-04  1.74611587E-04  1.48440585E-04  1.10510278E-04  8.07221856E-05  6.20855717E-05  5.38749820E-05  4.86687439E-05  4.00628387E-05  2.96210557E-05  2.44793110E-05  2.43700844E-05  1.95468017E-05  2.02934720E-05  2.20078902E-05  2.15821883E-05  2.21099036E-05  2.73174096E-05  3.40036558E-05  3.56771062E-05  4.29316609E-05  7.86289862E-05  1.41257353E-04  2.70631616E-04  5.39730276E-04  9.28525454E-05  9.28525454E-05  9.28525454E-05  9.28525454E-05  9.75775348E-04  8.01163827E-04  7.30326077E-04  9.28525454E-05  9.28525454E-05  9.28525454E-05  9.28525454E-05  9.28525454E-05  9.28525454E-05  9.28525454E-05  9.28525454E-05  9.28525454E-05  7.76917064E-05  8.25122991E-05  7.80931487E-05  6.98762125E-05  5.95783279E-05  5.25871981E-05  5.54228154E-05  7.26570198E-05  1.03196725E-04  1.31276921E-04  1.59942981E-04  1.62947185E-04  1.91662532E-04  2.28651980E-04  2.93581291E-04  4.20154744E-04  5.33783929E-04  5.99777737E-04  5.35034899E-04  5.25554803E-04  5.17606248E-04  4.45448267E-04  2.86738437E-04  1.90137594E-04  1.25583960E-04  8.60422846E-05  7.81097847E-05  7.24538797E-05  6.28407870E-05