# File generated by Flopy version 3.9.1 on 01/23/2025 at 15:44:14.
BEGIN options
  SAVE_FLOWS
END options

BEGIN dimensions
  MAXBOUND  844
END dimensions

BEGIN period  1
  11 1 1 100
  11 2 1 100
  11 3 1 100
  11 4 1 100
  11 5 1 100
  11 6 1 100
  11 7 1 100
  11 8 1 100
  11 9 1 100
  11 10 1 100
  11 11 1 100
  11 12 1 100
  11 13 1 100
  11 14 1 100
  11 15 1 100
  11 16 1 100
  11 17 1 100
  11 18 1 100
  11 19 1 100
  11 20 1 100
  11 21 1 100
  11 22 1 100
  11 23 1 100
  11 24 1 100
  11 25 1 100
  11 26 1 100
  11 27 1 100
  11 28 1 100
  11 29 1 100
  11 30 1 100
  11 31 1 100
  11 32 1 100
  11 33 1 100
  11 34 1 100
  11 35 1 100
  11 36 1 100
  11 37 1 100
  11 38 1 100
  11 39 1 100
  11 40 1 100
  11 41 1 100
  11 42 1 100
  11 43 1 100
  11 44 1 100
  11 45 1 100
  11 46 1 100
  11 47 1 100
  11 48 1 100
  11 49 1 100
  11 50 1 100
  11 51 1 100
  11 52 1 100
  11 53 1 100
  11 54 1 100
  11 55 1 100
  11 56 1 100
  11 57 1 100
  11 58 1 100
  11 59 1 100
  11 60 1 100
  11 61 1 100
  11 62 1 100
  11 63 1 100
  11 64 1 100
  11 65 1 100
  12 1 1 100
  12 2 1 100
  12 3 1 100
  12 4 1 100
  12 5 1 100
  12 6 1 100
  12 7 1 100
  12 8 1 100
  12 9 1 100
  12 10 1 100
  12 11 1 100
  12 12 1 100
  12 13 1 100
  12 14 1 100
  12 15 1 100
  12 16 1 100
  12 17 1 100
  12 18 1 100
  12 19 1 100
  12 20 1 100
  12 21 1 100
  12 22 1 100
  12 23 1 100
  12 24 1 100
  12 25 1 100
  12 26 1 100
  12 27 1 100
  12 28 1 100
  12 29 1 100
  12 30 1 100
  12 31 1 100
  12 32 1 100
  12 33 1 100
  12 34 1 100
  12 35 1 100
  12 36 1 100
  12 37 1 100
  12 38 1 100
  12 39 1 100
  12 40 1 100
  12 41 1 100
  12 42 1 100
  12 43 1 100
  12 44 1 100
  12 45 1 100
  12 46 1 100
  12 47 1 100
  12 48 1 100
  12 49 1 100
  12 50 1 100
  12 51 1 100
  12 52 1 100
  12 53 1 100
  12 54 1 100
  12 55 1 100
  12 56 1 100
  12 57 1 100
  12 58 1 100
  12 59 1 100
  12 60 1 100
  12 61 1 100
  12 62 1 100
  12 63 1 100
  12 64 1 100
  12 65 1 100
  13 1 1 100
  13 2 1 100
  13 3 1 100
  13 4 1 100
  13 5 1 100
  13 6 1 100
  13 7 1 100
  13 8 1 100
  13 9 1 100
  13 10 1 100
  13 11 1 100
  13 12 1 100
  13 13 1 100
  13 14 1 100
  13 15 1 100
  13 16 1 100
  13 17 1 100
  13 18 1 100
  13 19 1 100
  13 20 1 100
  13 21 1 100
  13 22 1 100
  13 23 1 100
  13 24 1 100
  13 25 1 100
  13 26 1 100
  13 27 1 100
  13 28 1 100
  13 29 1 100
  13 30 1 100
  13 31 1 100
  13 32 1 100
  13 33 1 100
  13 34 1 100
  13 35 1 100
  13 36 1 100
  13 37 1 100
  13 38 1 100
  13 39 1 100
  13 40 1 100
  13 41 1 100
  13 42 1 100
  13 43 1 100
  13 44 1 100
  13 45 1 100
  13 46 1 100
  13 47 1 100
  13 48 1 100
  13 49 1 100
  13 50 1 100
  13 51 1 100
  13 52 1 100
  13 53 1 100
  13 54 1 100
  13 55 1 100
  13 56 1 100
  13 57 1 100
  13 58 1 100
  13 59 1 100
  13 60 1 100
  13 61 1 100
  13 62 1 100
  13 63 1 100
  13 64 1 100
  14 1 1 100
  14 2 1 100
  14 3 1 100
  14 4 1 100
  14 5 1 100
  14 6 1 100
  14 7 1 100
  14 8 1 100
  14 9 1 100
  14 10 1 100
  14 11 1 100
  14 12 1 100
  14 13 1 100
  14 14 1 100
  14 15 1 100
  14 16 1 100
  14 17 1 100
  14 18 1 100
  14 19 1 100
  14 20 1 100
  14 21 1 100
  14 22 1 100
  14 23 1 100
  14 24 1 100
  14 25 1 100
  14 26 1 100
  14 27 1 100
  14 28 1 100
  14 29 1 100
  14 30 1 100
  14 31 1 100
  14 32 1 100
  14 33 1 100
  14 34 1 100
  14 40 1 100
  14 41 1 100
  14 42 1 100
  14 43 1 100
  14 44 1 100
  14 45 1 100
  14 46 1 100
  14 47 1 100
  14 48 1 100
  14 49 1 100
  14 50 1 100
  14 51 1 100
  14 52 1 100
  14 53 1 100
  14 54 1 100
  14 55 1 100
  14 56 1 100
  14 57 1 100
  14 58 1 100
  14 59 1 100
  14 60 1 100
  14 61 1 100
  14 62 1 100
  14 63 1 100
  15 1 1 100
  15 11 1 100
  15 12 1 100
  15 13 1 100
  15 14 1 100
  15 15 1 100
  15 16 1 100
  15 17 1 100
  15 18 1 100
  15 19 1 100
  15 20 1 100
  15 21 1 100
  15 22 1 100
  15 23 1 100
  15 24 1 100
  15 25 1 100
  15 26 1 100
  15 27 1 100
  15 28 1 100
  15 29 1 100
  15 30 1 100
  15 31 1 100
  15 42 1 100
  15 43 1 100
  15 44 1 100
  15 45 1 100
  15 46 1 100
  15 47 1 100
  15 48 1 100
  15 49 1 100
  15 50 1 100
  15 51 1 100
  15 52 1 100
  15 53 1 100
  15 54 1 100
  15 55 1 100
  15 56 1 100
  15 57 1 100
  15 58 1 100
  15 59 1 100
  15 60 1 100
  15 61 1 100
  15 62 1 100
  16 13 1 100
  16 14 1 100
  16 15 1 100
  16 16 1 100
  16 17 1 100
  16 18 1 100
  16 19 1 100
  16 20 1 100
  16 21 1 100
  16 22 1 100
  16 23 1 100
  16 24 1 100
  16 25 1 100
  16 26 1 100
  16 27 1 100
  16 28 1 100
  16 29 1 100
  16 30 1 100
  16 44 1 100
  16 45 1 100
  16 46 1 100
  16 47 1 100
  16 48 1 100
  16 49 1 100
  16 50 1 100
  16 51 1 100
  16 52 1 100
  16 53 1 100
  16 54 1 100
  16 55 1 100
  16 56 1 100
  16 57 1 100
  16 58 1 100
  16 59 1 100
  16 60 1 100
  16 61 1 100
  16 62 1 100
  17 15 1 100
  17 16 1 100
  17 17 1 100
  17 18 1 100
  17 19 1 100
  17 20 1 100
  17 21 1 100
  17 22 1 100
  17 23 1 100
  17 24 1 100
  17 25 1 100
  17 26 1 100
  17 27 1 100
  17 28 1 100
  17 46 1 100
  17 47 1 100
  17 48 1 100
  17 49 1 100
  17 50 1 100
  17 51 1 100
  17 52 1 100
  17 53 1 100
  17 54 1 100
  17 55 1 100
  17 56 1 100
  17 57 1 100
  17 58 1 100
  17 59 1 100
  17 60 1 100
  17 61 1 100
  18 47 1 100
  18 48 1 100
  18 49 1 100
  18 50 1 100
  18 51 1 100
  18 52 1 100
  18 53 1 100
  18 54 1 100
  18 55 1 100
  18 56 1 100
  18 57 1 100
  18 58 1 100
  18 59 1 100
  18 60 1 100
  18 61 1 100
  19 49 1 100
  19 50 1 100
  19 51 1 100
  19 52 1 100
  19 53 1 100
  19 54 1 100
  19 55 1 100
  19 56 1 100
  19 57 1 100
  19 58 1 100
  19 59 1 100
  19 60 1 100
  19 61 1 100
  20 53 1 100
  20 54 1 100
  20 55 1 100
  20 56 1 100
  20 57 1 100
  20 58 1 100
  20 59 1 100
  20 60 1 100
  21 57 1 100
  21 58 1 100
  21 59 1 100
  21 60 1 100
  11 1 140 0
  11 2 140 0
  11 3 140 0
  11 4 140 0
  11 5 140 0
  11 6 140 0
  11 7 140 0
  11 8 140 0
  11 9 140 0
  11 10 140 0
  11 11 140 0
  11 12 140 0
  11 13 140 0
  11 14 140 0
  11 15 140 0
  11 16 140 0
  11 17 140 0
  11 18 140 0
  11 19 140 0
  11 20 140 0
  11 21 140 0
  11 22 140 0
  11 23 140 0
  11 24 140 0
  11 25 140 0
  11 26 140 0
  11 27 140 0
  11 28 140 0
  11 29 140 0
  11 30 140 0
  11 31 140 0
  11 32 140 0
  11 33 140 0
  11 34 140 0
  11 35 140 0
  11 36 140 0
  11 37 140 0
  11 38 140 0
  11 39 140 0
  11 40 140 0
  11 41 140 0
  11 42 140 0
  11 43 140 0
  11 44 140 0
  11 45 140 0
  11 46 140 0
  11 47 140 0
  11 48 140 0
  11 49 140 0
  11 50 140 0
  11 51 140 0
  11 52 140 0
  11 53 140 0
  11 54 140 0
  11 55 140 0
  11 56 140 0
  11 57 140 0
  11 58 140 0
  11 59 140 0
  11 63 140 0
  11 64 140 0
  11 65 140 0
  12 1 140 0
  12 2 140 0
  12 3 140 0
  12 4 140 0
  12 5 140 0
  12 6 140 0
  12 7 140 0
  12 8 140 0
  12 9 140 0
  12 10 140 0
  12 11 140 0
  12 12 140 0
  12 13 140 0
  12 14 140 0
  12 15 140 0
  12 16 140 0
  12 17 140 0
  12 18 140 0
  12 19 140 0
  12 20 140 0
  12 21 140 0
  12 22 140 0
  12 23 140 0
  12 24 140 0
  12 25 140 0
  12 26 140 0
  12 27 140 0
  12 28 140 0
  12 29 140 0
  12 30 140 0
  12 31 140 0
  12 32 140 0
  12 33 140 0
  12 34 140 0
  12 35 140 0
  12 36 140 0
  12 37 140 0
  12 38 140 0
  12 39 140 0
  12 40 140 0
  12 41 140 0
  12 42 140 0
  12 43 140 0
  12 44 140 0
  12 45 140 0
  12 46 140 0
  12 47 140 0
  12 48 140 0
  12 49 140 0
  12 50 140 0
  12 51 140 0
  12 52 140 0
  12 53 140 0
  12 54 140 0
  12 55 140 0
  12 56 140 0
  12 57 140 0
  12 64 140 0
  12 65 140 0
  13 1 140 0
  13 2 140 0
  13 3 140 0
  13 4 140 0
  13 5 140 0
  13 6 140 0
  13 7 140 0
  13 8 140 0
  13 9 140 0
  13 10 140 0
  13 11 140 0
  13 12 140 0
  13 13 140 0
  13 14 140 0
  13 15 140 0
  13 16 140 0
  13 17 140 0
  13 18 140 0
  13 19 140 0
  13 20 140 0
  13 21 140 0
  13 22 140 0
  13 23 140 0
  13 24 140 0
  13 25 140 0
  13 26 140 0
  13 27 140 0
  13 28 140 0
  13 29 140 0
  13 30 140 0
  13 31 140 0
  13 32 140 0
  13 33 140 0
  13 34 140 0
  13 35 140 0
  13 36 140 0
  13 37 140 0
  13 38 140 0
  13 39 140 0
  13 40 140 0
  13 41 140 0
  13 42 140 0
  13 43 140 0
  13 44 140 0
  13 45 140 0
  13 46 140 0
  13 47 140 0
  13 48 140 0
  13 49 140 0
  13 50 140 0
  13 51 140 0
  13 52 140 0
  13 53 140 0
  13 54 140 0
  13 55 140 0
  13 56 140 0
  14 1 140 0
  14 2 140 0
  14 3 140 0
  14 4 140 0
  14 5 140 0
  14 6 140 0
  14 7 140 0
  14 8 140 0
  14 9 140 0
  14 10 140 0
  14 11 140 0
  14 12 140 0
  14 13 140 0
  14 14 140 0
  14 15 140 0
  14 16 140 0
  14 17 140 0
  14 18 140 0
  14 19 140 0
  14 20 140 0
  14 21 140 0
  14 22 140 0
  14 23 140 0
  14 24 140 0
  14 25 140 0
  14 26 140 0
  14 27 140 0
  14 28 140 0
  14 29 140 0
  14 30 140 0
  14 31 140 0
  14 32 140 0
  14 33 140 0
  14 34 140 0
  14 35 140 0
  14 36 140 0
  14 37 140 0
  14 38 140 0
  14 39 140 0
  14 40 140 0
  14 41 140 0
  14 42 140 0
  14 43 140 0
  14 44 140 0
  14 45 140 0
  14 46 140 0
  14 47 140 0
  14 48 140 0
  14 49 140 0
  14 50 140 0
  14 51 140 0
  14 52 140 0
  14 53 140 0
  14 54 140 0
  14 55 140 0
  15 1 140 0
  15 2 140 0
  15 3 140 0
  15 4 140 0
  15 5 140 0
  15 6 140 0
  15 7 140 0
  15 8 140 0
  15 9 140 0
  15 10 140 0
  15 11 140 0
  15 12 140 0
  15 13 140 0
  15 14 140 0
  15 15 140 0
  15 16 140 0
  15 17 140 0
  15 18 140 0
  15 19 140 0
  15 20 140 0
  15 21 140 0
  15 22 140 0
  15 23 140 0
  15 24 140 0
  15 25 140 0
  15 26 140 0
  15 27 140 0
  15 28 140 0
  15 29 140 0
  15 30 140 0
  15 31 140 0
  15 32 140 0
  15 33 140 0
  15 34 140 0
  15 35 140 0
  15 36 140 0
  15 37 140 0
  15 38 140 0
  15 39 140 0
  15 40 140 0
  15 41 140 0
  15 42 140 0
  15 43 140 0
  15 44 140 0
  15 45 140 0
  15 46 140 0
  15 47 140 0
  15 48 140 0
  15 49 140 0
  15 50 140 0
  15 51 140 0
  15 52 140 0
  15 53 140 0
  16 2 140 0
  16 3 140 0
  16 4 140 0
  16 5 140 0
  16 6 140 0
  16 7 140 0
  16 8 140 0
  16 9 140 0
  16 10 140 0
  16 11 140 0
  16 12 140 0
  16 13 140 0
  16 14 140 0
  16 15 140 0
  16 16 140 0
  16 17 140 0
  16 18 140 0
  16 19 140 0
  16 20 140 0
  16 21 140 0
  16 22 140 0
  16 23 140 0
  16 24 140 0
  16 25 140 0
  16 26 140 0
  16 27 140 0
  16 28 140 0
  16 29 140 0
  16 30 140 0
  16 31 140 0
  16 32 140 0
  16 33 140 0
  16 34 140 0
  16 35 140 0
  16 36 140 0
  16 37 140 0
  16 38 140 0
  16 39 140 0
  16 40 140 0
  16 41 140 0
  16 42 140 0
  16 43 140 0
  16 44 140 0
  16 45 140 0
  16 46 140 0
  16 47 140 0
  16 48 140 0
  16 49 140 0
  16 50 140 0
  16 51 140 0
  16 52 140 0
  17 4 140 0
  17 5 140 0
  17 11 140 0
  17 12 140 0
  17 13 140 0
  17 14 140 0
  17 15 140 0
  17 16 140 0
  17 17 140 0
  17 18 140 0
  17 19 140 0
  17 20 140 0
  17 22 140 0
  17 23 140 0
  17 24 140 0
  17 25 140 0
  17 26 140 0
  17 27 140 0
  17 28 140 0
  17 29 140 0
  17 30 140 0
  17 31 140 0
  17 32 140 0
  17 33 140 0
  17 34 140 0
  17 35 140 0
  17 36 140 0
  17 37 140 0
  17 38 140 0
  17 39 140 0
  17 40 140 0
  17 41 140 0
  17 42 140 0
  17 43 140 0
  17 44 140 0
  17 45 140 0
  17 46 140 0
  17 47 140 0
  17 48 140 0
  17 49 140 0
  17 50 140 0
  17 51 140 0
  18 14 140 0
  18 15 140 0
  18 16 140 0
  18 17 140 0
  18 18 140 0
  18 24 140 0
  18 25 140 0
  18 26 140 0
  18 27 140 0
  18 28 140 0
  18 29 140 0
  18 30 140 0
  18 31 140 0
  18 32 140 0
  18 33 140 0
  18 34 140 0
  18 35 140 0
  18 36 140 0
  18 37 140 0
  18 38 140 0
  18 39 140 0
  18 40 140 0
  18 41 140 0
  18 42 140 0
  18 43 140 0
  18 44 140 0
  18 45 140 0
  18 46 140 0
  18 47 140 0
  18 48 140 0
  18 49 140 0
  19 27 140 0
  19 28 140 0
  19 29 140 0
  19 30 140 0
  19 31 140 0
  19 32 140 0
  19 33 140 0
  19 34 140 0
  19 35 140 0
  19 36 140 0
  19 37 140 0
  19 38 140 0
  19 39 140 0
  19 40 140 0
  19 41 140 0
  19 42 140 0
  19 43 140 0
  19 44 140 0
  19 45 140 0
  19 46 140 0
  20 29 140 0
  20 30 140 0
  20 31 140 0
  20 32 140 0
  20 33 140 0
  20 34 140 0
  20 35 140 0
  20 36 140 0
  20 37 140 0
  20 38 140 0
  21 32 140 0
  21 33 140 0
  21 34 140 0
END period  1

