# File generated by Flopy version 3.4.1 on 01/16/2025 at 10:45:23.
BEGIN griddata
  strt
    CONSTANT       1.00000000
END griddata

