# File generated by Flopy version 3.8.2 on 11/13/2024 at 13:35:29.
BEGIN options
  SAVE_FLOWS
END options

BEGIN dimensions
  MAXBOUND  520
END dimensions

BEGIN period  1
  1 1 1 100
  1 2 1 100
  1 3 1 100
  1 4 1 100
  1 5 1 100
  1 6 1 100
  1 7 1 100
  1 8 1 100
  1 9 1 100
  1 10 1 100
  1 11 1 100
  1 12 1 100
  1 13 1 100
  1 14 1 100
  1 15 1 100
  1 16 1 100
  1 17 1 100
  1 18 1 100
  1 19 1 100
  1 20 1 100
  1 21 1 100
  1 22 1 100
  1 23 1 100
  1 24 1 100
  1 25 1 100
  1 26 1 100
  1 27 1 100
  1 28 1 100
  1 29 1 100
  1 30 1 100
  1 31 1 100
  1 32 1 100
  1 33 1 100
  1 34 1 100
  1 35 1 100
  1 36 1 100
  1 37 1 100
  1 38 1 100
  1 39 1 100
  1 40 1 100
  1 41 1 100
  1 42 1 100
  1 43 1 100
  1 44 1 100
  1 45 1 100
  1 46 1 100
  1 47 1 100
  1 48 1 100
  1 49 1 100
  1 50 1 100
  1 51 1 100
  1 52 1 100
  1 53 1 100
  1 54 1 100
  1 55 1 100
  1 56 1 100
  1 57 1 100
  1 58 1 100
  1 59 1 100
  1 60 1 100
  1 61 1 100
  1 62 1 100
  1 63 1 100
  1 64 1 100
  1 65 1 100
  1 66 1 100
  1 67 1 100
  2 1 1 100
  2 2 1 100
  2 3 1 100
  2 4 1 100
  2 5 1 100
  2 6 1 100
  2 7 1 100
  2 8 1 100
  2 9 1 100
  2 10 1 100
  2 11 1 100
  2 12 1 100
  2 13 1 100
  2 14 1 100
  2 15 1 100
  2 16 1 100
  2 17 1 100
  2 18 1 100
  2 19 1 100
  2 20 1 100
  2 21 1 100
  2 22 1 100
  2 23 1 100
  2 24 1 100
  2 25 1 100
  2 26 1 100
  2 27 1 100
  2 28 1 100
  2 29 1 100
  2 30 1 100
  2 31 1 100
  2 32 1 100
  2 33 1 100
  2 34 1 100
  2 35 1 100
  2 36 1 100
  2 37 1 100
  2 38 1 100
  2 39 1 100
  2 40 1 100
  2 41 1 100
  2 42 1 100
  2 43 1 100
  2 44 1 100
  2 45 1 100
  2 46 1 100
  2 47 1 100
  2 48 1 100
  2 49 1 100
  2 50 1 100
  2 51 1 100
  2 52 1 100
  2 53 1 100
  2 54 1 100
  2 55 1 100
  2 56 1 100
  2 57 1 100
  2 58 1 100
  2 59 1 100
  2 60 1 100
  2 61 1 100
  2 62 1 100
  2 63 1 100
  2 64 1 100
  2 65 1 100
  2 66 1 100
  2 67 1 100
  3 1 1 100
  3 2 1 100
  3 3 1 100
  3 4 1 100
  3 5 1 100
  3 6 1 100
  3 7 1 100
  3 8 1 100
  3 9 1 100
  3 10 1 100
  3 11 1 100
  3 12 1 100
  3 13 1 100
  3 14 1 100
  3 15 1 100
  3 16 1 100
  3 17 1 100
  3 18 1 100
  3 19 1 100
  3 20 1 100
  3 21 1 100
  3 22 1 100
  3 23 1 100
  3 24 1 100
  3 25 1 100
  3 26 1 100
  3 27 1 100
  3 28 1 100
  3 29 1 100
  3 30 1 100
  3 31 1 100
  3 32 1 100
  3 33 1 100
  3 34 1 100
  3 35 1 100
  3 36 1 100
  3 37 1 100
  3 38 1 100
  3 39 1 100
  3 40 1 100
  3 41 1 100
  3 42 1 100
  3 43 1 100
  3 44 1 100
  3 45 1 100
  3 46 1 100
  3 47 1 100
  3 48 1 100
  3 49 1 100
  3 50 1 100
  3 51 1 100
  3 52 1 100
  3 53 1 100
  3 54 1 100
  3 55 1 100
  3 56 1 100
  3 57 1 100
  3 58 1 100
  3 59 1 100
  3 60 1 100
  3 61 1 100
  3 62 1 100
  3 63 1 100
  3 64 1 100
  3 65 1 100
  3 66 1 100
  3 67 1 100
  4 1 1 100
  4 2 1 100
  4 3 1 100
  4 4 1 100
  4 5 1 100
  4 6 1 100
  4 7 1 100
  4 8 1 100
  4 9 1 100
  4 10 1 100
  4 11 1 100
  4 12 1 100
  4 13 1 100
  4 14 1 100
  4 15 1 100
  4 16 1 100
  4 17 1 100
  4 18 1 100
  4 19 1 100
  4 20 1 100
  4 21 1 100
  4 22 1 100
  4 23 1 100
  4 24 1 100
  4 25 1 100
  4 26 1 100
  4 27 1 100
  4 28 1 100
  4 29 1 100
  4 30 1 100
  4 31 1 100
  4 32 1 100
  4 33 1 100
  4 34 1 100
  4 35 1 100
  4 36 1 100
  4 37 1 100
  4 38 1 100
  4 39 1 100
  4 40 1 100
  4 41 1 100
  4 42 1 100
  4 43 1 100
  4 44 1 100
  4 45 1 100
  4 46 1 100
  4 47 1 100
  4 48 1 100
  4 49 1 100
  4 50 1 100
  4 51 1 100
  4 52 1 100
  4 53 1 100
  4 54 1 100
  4 55 1 100
  4 56 1 100
  4 57 1 100
  4 58 1 100
  4 59 1 100
  4 60 1 100
  4 61 1 100
  4 62 1 100
  4 63 1 100
  4 64 1 100
  4 65 1 100
  4 66 1 100
  4 67 1 100
  1 1 133 0
  1 2 133 0
  1 3 133 0
  1 4 133 0
  1 5 133 0
  1 6 133 0
  1 7 133 0
  1 8 133 0
  1 9 133 0
  1 10 133 0
  1 11 133 0
  1 12 133 0
  1 13 133 0
  1 14 133 0
  1 15 133 0
  1 16 133 0
  1 17 133 0
  1 18 133 0
  1 19 133 0
  1 20 133 0
  1 22 133 0
  1 23 133 0
  1 24 133 0
  1 25 133 0
  1 26 133 0
  1 27 133 0
  1 28 133 0
  1 29 133 0
  1 30 133 0
  1 31 133 0
  1 32 133 0
  1 33 133 0
  1 34 133 0
  1 35 133 0
  1 36 133 0
  1 37 133 0
  1 38 133 0
  1 39 133 0
  1 40 133 0
  1 41 133 0
  1 42 133 0
  1 43 133 0
  1 44 133 0
  1 45 133 0
  1 46 133 0
  1 47 133 0
  1 48 133 0
  1 49 133 0
  1 50 133 0
  1 66 133 0
  1 67 133 0
  2 1 133 0
  2 2 133 0
  2 3 133 0
  2 4 133 0
  2 5 133 0
  2 6 133 0
  2 7 133 0
  2 8 133 0
  2 9 133 0
  2 10 133 0
  2 11 133 0
  2 12 133 0
  2 13 133 0
  2 14 133 0
  2 15 133 0
  2 16 133 0
  2 17 133 0
  2 18 133 0
  2 19 133 0
  2 20 133 0
  2 21 133 0
  2 22 133 0
  2 23 133 0
  2 24 133 0
  2 25 133 0
  2 26 133 0
  2 27 133 0
  2 28 133 0
  2 29 133 0
  2 30 133 0
  2 31 133 0
  2 32 133 0
  2 33 133 0
  2 34 133 0
  2 35 133 0
  2 36 133 0
  2 37 133 0
  2 38 133 0
  2 39 133 0
  2 40 133 0
  2 41 133 0
  2 42 133 0
  2 43 133 0
  2 44 133 0
  2 45 133 0
  2 46 133 0
  2 47 133 0
  2 48 133 0
  2 49 133 0
  2 50 133 0
  2 51 133 0
  2 52 133 0
  2 53 133 0
  2 54 133 0
  2 55 133 0
  2 56 133 0
  2 57 133 0
  2 58 133 0
  2 59 133 0
  2 60 133 0
  2 61 133 0
  2 62 133 0
  2 63 133 0
  2 64 133 0
  2 65 133 0
  2 66 133 0
  2 67 133 0
  3 1 133 0
  3 2 133 0
  3 3 133 0
  3 4 133 0
  3 5 133 0
  3 6 133 0
  3 7 133 0
  3 8 133 0
  3 9 133 0
  3 10 133 0
  3 11 133 0
  3 12 133 0
  3 13 133 0
  3 14 133 0
  3 15 133 0
  3 16 133 0
  3 17 133 0
  3 18 133 0
  3 19 133 0
  3 20 133 0
  3 21 133 0
  3 22 133 0
  3 23 133 0
  3 24 133 0
  3 25 133 0
  3 26 133 0
  3 27 133 0
  3 28 133 0
  3 29 133 0
  3 30 133 0
  3 31 133 0
  3 32 133 0
  3 33 133 0
  3 34 133 0
  3 35 133 0
  3 36 133 0
  3 37 133 0
  3 38 133 0
  3 39 133 0
  3 40 133 0
  3 41 133 0
  3 42 133 0
  3 43 133 0
  3 44 133 0
  3 45 133 0
  3 46 133 0
  3 47 133 0
  3 48 133 0
  3 49 133 0
  3 50 133 0
  3 51 133 0
  3 52 133 0
  3 53 133 0
  3 54 133 0
  3 55 133 0
  3 56 133 0
  3 57 133 0
  3 58 133 0
  3 59 133 0
  3 60 133 0
  3 61 133 0
  3 62 133 0
  3 63 133 0
  3 64 133 0
  3 65 133 0
  3 66 133 0
  3 67 133 0
  4 1 133 0
  4 2 133 0
  4 3 133 0
  4 4 133 0
  4 5 133 0
  4 6 133 0
  4 7 133 0
  4 8 133 0
  4 9 133 0
  4 10 133 0
  4 11 133 0
  4 12 133 0
  4 13 133 0
  4 14 133 0
  4 15 133 0
  4 16 133 0
  4 17 133 0
  4 18 133 0
  4 19 133 0
  4 20 133 0
  4 21 133 0
  4 22 133 0
  4 23 133 0
  4 24 133 0
  4 25 133 0
  4 26 133 0
  4 27 133 0
  4 28 133 0
  4 29 133 0
  4 30 133 0
  4 31 133 0
  4 32 133 0
  4 33 133 0
  4 34 133 0
  4 35 133 0
  4 36 133 0
  4 37 133 0
  4 38 133 0
  4 39 133 0
  4 40 133 0
  4 41 133 0
  4 42 133 0
  4 43 133 0
  4 44 133 0
  4 45 133 0
  4 46 133 0
  4 47 133 0
  4 48 133 0
  4 49 133 0
  4 50 133 0
  4 51 133 0
  4 52 133 0
  4 53 133 0
  4 54 133 0
  4 55 133 0
  4 56 133 0
  4 57 133 0
  4 58 133 0
  4 59 133 0
  4 60 133 0
  4 61 133 0
  4 62 133 0
  4 63 133 0
  4 64 133 0
  4 65 133 0
  4 66 133 0
  4 67 133 0
END period  1

