MODPATH_TIMESERIES_FILE         7         2
    2   0.0000000000E+00  0.0000000000E+00  0.0000000000E+00  0.0000000000E+00
END HEADER
       0       1  0.0000000000E+00         1    1         1      9864  0.4500000000E+00  0.2500000000E+00  0.6667345000E+00  0.1707000000E+03  0.9975000000E+02 -0.6999999997E+01         9
       0       1  0.0000000000E+00         2    2         1     17214  0.4500000000E+00  0.2500000000E+00  0.5086276000E-04  0.1707000000E+03  0.9975000000E+02 -0.9000000001E+01        15
       0       1  0.0000000000E+00         3    3         1     25789  0.4500000000E+00  0.2500000000E+00  0.3333672000E+00  0.1707000000E+03  0.9975000000E+02 -0.1100000001E+02        22
       1       1  0.1000000000E-01         1    1         1      9864  0.4500000000E+00  0.2500000000E+00  0.6667345027E+00  0.1707000000E+03  0.9975000000E+02 -0.6999999996E+01         9
       1       1  0.1000000000E-01         2    2         1     17214  0.4500000000E+00  0.2500000000E+00  0.5086546723E-04  0.1707000000E+03  0.9975000000E+02 -0.9000000000E+01        15
       1       1  0.1000000000E-01         3    3         1     25789  0.4499999951E+00  0.2500000004E+00  0.3333671970E+00  0.1707000000E+03  0.9975000000E+02 -0.1100000001E+02        22
       2       1  0.2000000000E-01         1    1         1      9864  0.4500000000E+00  0.2500000001E+00  0.6667345054E+00  0.1707000000E+03  0.9975000000E+02 -0.6999999995E+01         9
       2       1  0.2000000000E-01         2    2         1     17214  0.4500000000E+00  0.2500000000E+00  0.5086817447E-04  0.1707000000E+03  0.9975000000E+02 -0.9000000000E+01        15
       2       1  0.2000000000E-01         3    3         1     25789  0.4499999901E+00  0.2500000008E+00  0.3333671941E+00  0.1706999999E+03  0.9975000000E+02 -0.1100000002E+02        22
       3       1  0.3000000000E-01         1    1         1      9864  0.4500000000E+00  0.2500000001E+00  0.6667345081E+00  0.1707000000E+03  0.9975000000E+02 -0.6999999994E+01         9
       3       1  0.3000000000E-01         2    2         1     17214  0.4499999999E+00  0.2500000001E+00  0.5087088170E-04  0.1707000000E+03  0.9975000000E+02 -0.8999999999E+01        15
       3       1  0.3000000000E-01         3    3         1     25789  0.4499999852E+00  0.2500000012E+00  0.3333671911E+00  0.1706999999E+03  0.9975000000E+02 -0.1100000002E+02        22
       4       1  0.4000000000E-01         1    1         1      9864  0.4500000000E+00  0.2500000002E+00  0.6667345108E+00  0.1707000000E+03  0.9975000000E+02 -0.6999999993E+01         9
       4       1  0.4000000000E-01         2    2         1     17214  0.4499999999E+00  0.2500000001E+00  0.5087358893E-04  0.1707000000E+03  0.9975000000E+02 -0.8999999998E+01        15
       4       1  0.4000000000E-01         3    3         1     25789  0.4499999802E+00  0.2500000016E+00  0.3333671881E+00  0.1706999999E+03  0.9975000000E+02 -0.1100000002E+02        22
       5       1  0.5000000000E-01         1    1         1      9864  0.4499999999E+00  0.2500000002E+00  0.6667345136E+00  0.1707000000E+03  0.9975000000E+02 -0.6999999993E+01         9
       5       1  0.5000000000E-01         2    2         1     17214  0.4499999999E+00  0.2500000001E+00  0.5087629616E-04  0.1707000000E+03  0.9975000000E+02 -0.8999999997E+01        15
       5       1  0.5000000000E-01         3    3         1     25789  0.4499999753E+00  0.2500000020E+00  0.3333671852E+00  0.1706999999E+03  0.9975000001E+02 -0.1100000002E+02        22
       6       1  0.6000000000E-01         1    1         1      9864  0.4499999999E+00  0.2500000003E+00  0.6667345163E+00  0.1707000000E+03  0.9975000000E+02 -0.6999999992E+01         9
       6       1  0.6000000000E-01         2    2         1     17214  0.4499999999E+00  0.2500000001E+00  0.5087900340E-04  0.1707000000E+03  0.9975000000E+02 -0.8999999996E+01        15
       6       1  0.6000000000E-01         3    3         1     25789  0.4499999703E+00  0.2500000024E+00  0.3333671822E+00  0.1706999998E+03  0.9975000001E+02 -0.1100000002E+02        22
       7       1  0.7000000000E-01         1    1         1      9864  0.4499999999E+00  0.2500000003E+00  0.6667345190E+00  0.1707000000E+03  0.9975000000E+02 -0.6999999991E+01         9
       7       1  0.7000000000E-01         2    2         1     17214  0.4499999999E+00  0.2500000002E+00  0.5088171063E-04  0.1707000000E+03  0.9975000000E+02 -0.8999999996E+01        15
       7       1  0.7000000000E-01         3    3         1     25789  0.4499999654E+00  0.2500000028E+00  0.3333671793E+00  0.1706999998E+03  0.9975000001E+02 -0.1100000002E+02        22
       8       1  0.8000000000E-01         1    1         1      9864  0.4499999999E+00  0.2500000003E+00  0.6667345217E+00  0.1707000000E+03  0.9975000000E+02 -0.6999999990E+01         9
       8       1  0.8000000000E-01         2    2         1     17214  0.4499999999E+00  0.2500000002E+00  0.5088441786E-04  0.1707000000E+03  0.9975000000E+02 -0.8999999995E+01        15
       8       1  0.8000000000E-01         3    3         1     25789  0.4499999604E+00  0.2500000032E+00  0.3333671763E+00  0.1706999998E+03  0.9975000001E+02 -0.1100000002E+02        22
       9       1  0.9000000000E-01         1    1         1      9864  0.4499999999E+00  0.2500000004E+00  0.6667345244E+00  0.1707000000E+03  0.9975000000E+02 -0.6999999989E+01         9
       9       1  0.9000000000E-01         2    2         1     17214  0.4499999998E+00  0.2500000002E+00  0.5088712510E-04  0.1707000000E+03  0.9975000000E+02 -0.8999999994E+01        15
       9       1  0.9000000000E-01         3    3         1     25789  0.4499999555E+00  0.2500000036E+00  0.3333671733E+00  0.1706999997E+03  0.9975000001E+02 -0.1100000002E+02        22
      10       1  0.1000000000E+00         1    1         1      9864  0.4499999999E+00  0.2500000004E+00  0.6667345271E+00  0.1707000000E+03  0.9975000000E+02 -0.6999999989E+01         9
      10       1  0.1000000000E+00         2    2         1     17214  0.4499999998E+00  0.2500000002E+00  0.5088983233E-04  0.1707000000E+03  0.9975000000E+02 -0.8999999993E+01        15
      10       1  0.1000000000E+00         3    3         1     25789  0.4499999505E+00  0.2500000040E+00  0.3333671704E+00  0.1706999997E+03  0.9975000001E+02 -0.1100000002E+02        22
      11       1  0.1100000000E+00         1    1         1      9864  0.4499999999E+00  0.2500000005E+00  0.6667345298E+00  0.1707000000E+03  0.9975000000E+02 -0.6999999988E+01         9
      11       1  0.1100000000E+00         2    2         1     17214  0.4499999998E+00  0.2500000003E+00  0.5089253956E-04  0.1707000000E+03  0.9975000000E+02 -0.8999999992E+01        15
      11       1  0.1100000000E+00         3    3         1     25789  0.4499999456E+00  0.2500000044E+00  0.3333671674E+00  0.1706999997E+03  0.9975000001E+02 -0.1100000002E+02        22
      12       1  0.1200000000E+00         1    1         1      9864  0.4499999999E+00  0.2500000005E+00  0.6667345325E+00  0.1707000000E+03  0.9975000000E+02 -0.6999999987E+01         9
      12       1  0.1200000000E+00         2    2         1     17214  0.4499999998E+00  0.2500000003E+00  0.5089524679E-04  0.1707000000E+03  0.9975000000E+02 -0.8999999991E+01        15
      12       1  0.1200000000E+00         3    3         1     25789  0.4499999406E+00  0.2500000048E+00  0.3333671644E+00  0.1706999996E+03  0.9975000001E+02 -0.1100000002E+02        22
      13       1  0.1300000000E+00         1    1         1      9864  0.4499999999E+00  0.2500000005E+00  0.6667345353E+00  0.1707000000E+03  0.9975000000E+02 -0.6999999986E+01         9
      13       1  0.1300000000E+00         2    2         1     17214  0.4499999998E+00  0.2500000003E+00  0.5089795403E-04  0.1707000000E+03  0.9975000000E+02 -0.8999999991E+01        15
      13       1  0.1300000000E+00         3    3         1     25789  0.4499999357E+00  0.2500000052E+00  0.3333671615E+00  0.1706999996E+03  0.9975000002E+02 -0.1100000002E+02        22
      14       1  0.1400000000E+00         1    1         1      9864  0.4499999998E+00  0.2500000006E+00  0.6667345380E+00  0.1707000000E+03  0.9975000000E+02 -0.6999999985E+01         9
      14       1  0.1400000000E+00         2    2         1     17214  0.4499999997E+00  0.2500000003E+00  0.5090066126E-04  0.1707000000E+03  0.9975000000E+02 -0.8999999990E+01        15
      14       1  0.1400000000E+00         3    3         1     25789  0.4499999307E+00  0.2500000056E+00  0.3333671585E+00  0.1706999996E+03  0.9975000002E+02 -0.1100000003E+02        22
      15       1  0.1500000000E+00         1    1         1      9864  0.4499999998E+00  0.2500000006E+00  0.6667345407E+00  0.1707000000E+03  0.9975000000E+02 -0.6999999985E+01         9
      15       1  0.1500000000E+00         2    2         1     17214  0.4499999997E+00  0.2500000004E+00  0.5090336849E-04  0.1707000000E+03  0.9975000000E+02 -0.8999999989E+01        15
      15       1  0.1500000000E+00         3    3         1     25789  0.4499999258E+00  0.2500000060E+00  0.3333671556E+00  0.1706999996E+03  0.9975000002E+02 -0.1100000003E+02        22
      16       1  0.1600000000E+00         1    1         1      9864  0.4499999998E+00  0.2500000007E+00  0.6667345434E+00  0.1707000000E+03  0.9975000000E+02 -0.6999999984E+01         9
      16       1  0.1600000000E+00         2    2         1     17214  0.4499999997E+00  0.2500000004E+00  0.5090607573E-04  0.1707000000E+03  0.9975000000E+02 -0.8999999988E+01        15
      16       1  0.1600000000E+00         3    3         1     25789  0.4499999208E+00  0.2500000064E+00  0.3333671526E+00  0.1706999995E+03  0.9975000002E+02 -0.1100000003E+02        22
      17       1  0.1700000000E+00         1    1         1      9864  0.4499999998E+00  0.2500000007E+00  0.6667345461E+00  0.1707000000E+03  0.9975000000E+02 -0.6999999983E+01         9
      17       1  0.1700000000E+00         2    2         1     17214  0.4499999997E+00  0.2500000004E+00  0.5090878296E-04  0.1707000000E+03  0.9975000000E+02 -0.8999999987E+01        15
      17       1  0.1700000000E+00         3    3         1     25789  0.4499999159E+00  0.2500000068E+00  0.3333671496E+00  0.1706999995E+03  0.9975000002E+02 -0.1100000003E+02        22
      18       1  0.1800000000E+00         1    1         1      9864  0.4499999998E+00  0.2500000008E+00  0.6667345488E+00  0.1707000000E+03  0.9975000000E+02 -0.6999999982E+01         9
      18       1  0.1800000000E+00         2    2         1     17214  0.4499999997E+00  0.2500000004E+00  0.5091149019E-04  0.1707000000E+03  0.9975000000E+02 -0.8999999987E+01        15
      18       1  0.1800000000E+00         3    3         1     25789  0.4499999109E+00  0.2500000072E+00  0.3333671467E+00  0.1706999995E+03  0.9975000002E+02 -0.1100000003E+02        22
      19       1  0.1900000000E+00         1    1         1      9864  0.4499999998E+00  0.2500000008E+00  0.6667345515E+00  0.1707000000E+03  0.9975000000E+02 -0.6999999981E+01         9
      19       1  0.1900000000E+00         2    2         1     17214  0.4499999997E+00  0.2500000005E+00  0.5091419743E-04  0.1707000000E+03  0.9975000000E+02 -0.8999999986E+01        15
      19       1  0.1900000000E+00         3    3         1     25789  0.4499999060E+00  0.2500000076E+00  0.3333671437E+00  0.1706999994E+03  0.9975000002E+02 -0.1100000003E+02        22
      20       1  0.2000000000E+00         1    1         1      9864  0.4499999998E+00  0.2500000008E+00  0.6667345542E+00  0.1707000000E+03  0.9975000000E+02 -0.6999999980E+01         9
      20       1  0.2000000000E+00         2    2         1     17214  0.4499999996E+00  0.2500000005E+00  0.5091690466E-04  0.1707000000E+03  0.9975000000E+02 -0.8999999985E+01        15
      20       1  0.2000000000E+00         3    3         1     25789  0.4499999010E+00  0.2500000080E+00  0.3333671407E+00  0.1706999994E+03  0.9975000002E+02 -0.1100000003E+02        22
      21       1  0.2100000000E+00         1    1         1      9864  0.4499999998E+00  0.2500000009E+00  0.6667345569E+00  0.1707000000E+03  0.9975000000E+02 -0.6999999980E+01         9
      21       1  0.2100000000E+00         2    2         1     17214  0.4499999996E+00  0.2500000005E+00  0.5091961189E-04  0.1707000000E+03  0.9975000000E+02 -0.8999999984E+01        15
      21       1  0.2100000000E+00         3    3         1     25789  0.4499998961E+00  0.2500000084E+00  0.3333671378E+00  0.1706999994E+03  0.9975000003E+02 -0.1100000003E+02        22
      22       1  0.2200000000E+00         1    1         1      9864  0.4499999998E+00  0.2500000009E+00  0.6667345597E+00  0.1707000000E+03  0.9975000000E+02 -0.6999999979E+01         9
      22       1  0.2200000000E+00         2    2         1     17214  0.4499999996E+00  0.2500000005E+00  0.5092231912E-04  0.1707000000E+03  0.9975000000E+02 -0.8999999983E+01        15
      22       1  0.2200000000E+00         3    3         1     25789  0.4499998911E+00  0.2500000088E+00  0.3333671348E+00  0.1706999993E+03  0.9975000003E+02 -0.1100000003E+02        22
      23       1  0.2300000000E+00         1    1         1      9864  0.4499999997E+00  0.2500000010E+00  0.6667345624E+00  0.1707000000E+03  0.9975000000E+02 -0.6999999978E+01         9
      23       1  0.2300000000E+00         2    2         1     17214  0.4499999996E+00  0.2500000006E+00  0.5092502636E-04  0.1707000000E+03  0.9975000000E+02 -0.8999999983E+01        15
      23       1  0.2300000000E+00         3    3         1     25789  0.4499998862E+00  0.2500000092E+00  0.3333671318E+00  0.1706999993E+03  0.9975000003E+02 -0.1100000003E+02        22
      24       1  0.2400000000E+00         1    1         1      9864  0.4499999997E+00  0.2500000010E+00  0.6667345651E+00  0.1707000000E+03  0.9975000000E+02 -0.6999999977E+01         9
      24       1  0.2400000000E+00         2    2         1     17214  0.4499999996E+00  0.2500000006E+00  0.5092773359E-04  0.1707000000E+03  0.9975000000E+02 -0.8999999982E+01        15
      24       1  0.2400000000E+00         3    3         1     25789  0.4499998812E+00  0.2500000096E+00  0.3333671289E+00  0.1706999993E+03  0.9975000003E+02 -0.1100000003E+02        22
      25       1  0.2500000000E+00         1    1         1      9864  0.4499999997E+00  0.2500000010E+00  0.6667345678E+00  0.1707000000E+03  0.9975000000E+02 -0.6999999976E+01         9
      25       1  0.2500000000E+00         2    2         1     17214  0.4499999995E+00  0.2500000006E+00  0.5093044082E-04  0.1707000000E+03  0.9975000000E+02 -0.8999999981E+01        15
      25       1  0.2500000000E+00         3    3         1     25789  0.4499998763E+00  0.2500000100E+00  0.3333671259E+00  0.1706999993E+03  0.9975000003E+02 -0.1100000004E+02        22
      26       1  0.2600000000E+00         1    1         1      9864  0.4499999997E+00  0.2500000011E+00  0.6667345705E+00  0.1707000000E+03  0.9975000000E+02 -0.6999999976E+01         9
      26       1  0.2600000000E+00         2    2         1     17214  0.4499999995E+00  0.2500000006E+00  0.5093314806E-04  0.1707000000E+03  0.9975000000E+02 -0.8999999980E+01        15
      26       1  0.2600000000E+00         3    3         1     25789  0.4499998713E+00  0.2500000104E+00  0.3333671230E+00  0.1706999992E+03  0.9975000003E+02 -0.1100000004E+02        22
      27       1  0.2700000000E+00         1    1         1      9864  0.4499999997E+00  0.2500000011E+00  0.6667345732E+00  0.1707000000E+03  0.9975000000E+02 -0.6999999975E+01         9
      27       1  0.2700000000E+00         2    2         1     17214  0.4499999995E+00  0.2500000007E+00  0.5093585529E-04  0.1707000000E+03  0.9975000000E+02 -0.8999999979E+01        15
      27       1  0.2700000000E+00         3    3         1     25789  0.4499998664E+00  0.2500000108E+00  0.3333671200E+00  0.1706999992E+03  0.9975000003E+02 -0.1100000004E+02        22
      28       1  0.2800000000E+00         1    1         1      9864  0.4499999997E+00  0.2500000012E+00  0.6667345759E+00  0.1707000000E+03  0.9975000000E+02 -0.6999999974E+01         9
      28       1  0.2800000000E+00         2    2         1     17214  0.4499999995E+00  0.2500000007E+00  0.5093856252E-04  0.1707000000E+03  0.9975000000E+02 -0.8999999978E+01        15
      28       1  0.2800000000E+00         3    3         1     25789  0.4499998614E+00  0.2500000112E+00  0.3333671170E+00  0.1706999992E+03  0.9975000003E+02 -0.1100000004E+02        22
      29       1  0.2900000000E+00         1    1         1      9864  0.4499999997E+00  0.2500000012E+00  0.6667345786E+00  0.1707000000E+03  0.9975000000E+02 -0.6999999973E+01         9
      29       1  0.2900000000E+00         2    2         1     17214  0.4499999995E+00  0.2500000007E+00  0.5094126975E-04  0.1707000000E+03  0.9975000000E+02 -0.8999999978E+01        15
      29       1  0.2900000000E+00         3    3         1     25789  0.4499998565E+00  0.2500000116E+00  0.3333671141E+00  0.1706999991E+03  0.9975000003E+02 -0.1100000004E+02        22
      30       1  0.3000000000E+00         1    1         1      9864  0.4499999997E+00  0.2500000013E+00  0.6667345814E+00  0.1707000000E+03  0.9975000000E+02 -0.6999999972E+01         9
      30       1  0.3000000000E+00         2    2         1     17214  0.4499999995E+00  0.2500000007E+00  0.5094397699E-04  0.1707000000E+03  0.9975000000E+02 -0.8999999977E+01        15
      30       1  0.3000000000E+00         3    3         1     25789  0.4499998515E+00  0.2500000120E+00  0.3333671111E+00  0.1706999991E+03  0.9975000004E+02 -0.1100000004E+02        22
      31       1  0.3100000000E+00         1    1         1      9864  0.4499999997E+00  0.2500000013E+00  0.6667345841E+00  0.1707000000E+03  0.9975000000E+02 -0.6999999971E+01         9
      31       1  0.3100000000E+00         2    2         1     17214  0.4499999994E+00  0.2500000008E+00  0.5094668422E-04  0.1707000000E+03  0.9975000000E+02 -0.8999999976E+01        15
      31       1  0.3100000000E+00         3    3         1     25789  0.4499998466E+00  0.2500000124E+00  0.3333671081E+00  0.1706999991E+03  0.9975000004E+02 -0.1100000004E+02        22
      32       1  0.3200000000E+00         1    1         1      9864  0.4499999997E+00  0.2500000013E+00  0.6667345868E+00  0.1707000000E+03  0.9975000000E+02 -0.6999999971E+01         9
      32       1  0.3200000000E+00         2    2         1     17214  0.4499999994E+00  0.2500000008E+00  0.5094939145E-04  0.1707000000E+03  0.9975000000E+02 -0.8999999975E+01        15
      32       1  0.3200000000E+00         3    3         1     25789  0.4499998416E+00  0.2500000128E+00  0.3333671052E+00  0.1706999990E+03  0.9975000004E+02 -0.1100000004E+02        22
      33       1  0.3300000000E+00         1    1         1      9864  0.4499999996E+00  0.2500000014E+00  0.6667345895E+00  0.1707000000E+03  0.9975000000E+02 -0.6999999970E+01         9
      33       1  0.3300000000E+00         2    2         1     17214  0.4499999994E+00  0.2500000008E+00  0.5095209869E-04  0.1707000000E+03  0.9975000000E+02 -0.8999999974E+01        15
      33       1  0.3300000000E+00         3    3         1     25789  0.4499998367E+00  0.2500000132E+00  0.3333671022E+00  0.1706999990E+03  0.9975000004E+02 -0.1100000004E+02        22
      34       1  0.3400000000E+00         1    1         1      9864  0.4499999996E+00  0.2500000014E+00  0.6667345922E+00  0.1707000000E+03  0.9975000000E+02 -0.6999999969E+01         9
      34       1  0.3400000000E+00         2    2         1     17214  0.4499999994E+00  0.2500000008E+00  0.5095480592E-04  0.1707000000E+03  0.9975000000E+02 -0.8999999974E+01        15
      34       1  0.3400000000E+00         3    3         1     25789  0.4499998317E+00  0.2500000136E+00  0.3333670993E+00  0.1706999990E+03  0.9975000004E+02 -0.1100000004E+02        22
      35       1  0.3500000000E+00         1    1         1      9864  0.4499999996E+00  0.2500000015E+00  0.6667345949E+00  0.1707000000E+03  0.9975000000E+02 -0.6999999968E+01         9
      35       1  0.3500000000E+00         2    2         1     17214  0.4499999994E+00  0.2500000009E+00  0.5095751315E-04  0.1707000000E+03  0.9975000000E+02 -0.8999999973E+01        15
      35       1  0.3500000000E+00         3    3         1     25789  0.4499998268E+00  0.2500000140E+00  0.3333670963E+00  0.1706999990E+03  0.9975000004E+02 -0.1100000004E+02        22
      36       1  0.3600000000E+00         1    1         1      9864  0.4499999996E+00  0.2500000015E+00  0.6667345976E+00  0.1707000000E+03  0.9975000000E+02 -0.6999999967E+01         9
      36       1  0.3600000000E+00         2    2         1     17214  0.4499999994E+00  0.2500000009E+00  0.5096022038E-04  0.1707000000E+03  0.9975000000E+02 -0.8999999972E+01        15
      36       1  0.3600000000E+00         3    3         1     25789  0.4499998218E+00  0.2500000144E+00  0.3333670933E+00  0.1706999989E+03  0.9975000004E+02 -0.1100000005E+02        22
      37       1  0.3700000000E+00         1    1         1      9864  0.4499999996E+00  0.2500000015E+00  0.6667346003E+00  0.1707000000E+03  0.9975000000E+02 -0.6999999967E+01         9
      37       1  0.3700000000E+00         2    2         1     17214  0.4499999993E+00  0.2500000009E+00  0.5096292762E-04  0.1707000000E+03  0.9975000000E+02 -0.8999999971E+01        15
      37       1  0.3700000000E+00         3    3         1     25789  0.4499998169E+00  0.2500000148E+00  0.3333670904E+00  0.1706999989E+03  0.9975000004E+02 -0.1100000005E+02        22
      38       1  0.3800000000E+00         1    1         1      9864  0.4499999996E+00  0.2500000016E+00  0.6667346030E+00  0.1707000000E+03  0.9975000000E+02 -0.6999999966E+01         9
      38       1  0.3800000000E+00         2    2         1     17214  0.4499999993E+00  0.2500000009E+00  0.5096563485E-04  0.1707000000E+03  0.9975000000E+02 -0.8999999970E+01        15
      38       1  0.3800000000E+00         3    3         1     25789  0.4499998119E+00  0.2500000152E+00  0.3333670874E+00  0.1706999989E+03  0.9975000005E+02 -0.1100000005E+02        22
      39       1  0.3900000000E+00         1    1         1      9864  0.4499999996E+00  0.2500000016E+00  0.6667346058E+00  0.1707000000E+03  0.9975000000E+02 -0.6999999965E+01         9
      39       1  0.3900000000E+00         2    2         1     17214  0.4499999993E+00  0.2500000010E+00  0.5096834208E-04  0.1707000000E+03  0.9975000000E+02 -0.8999999970E+01        15
      39       1  0.3900000000E+00         3    3         1     25789  0.4499998070E+00  0.2500000156E+00  0.3333670844E+00  0.1706999988E+03  0.9975000005E+02 -0.1100000005E+02        22
      40       1  0.4000000000E+00         1    1         1      9864  0.4499999996E+00  0.2500000017E+00  0.6667346085E+00  0.1707000000E+03  0.9975000001E+02 -0.6999999964E+01         9
      40       1  0.4000000000E+00         2    2         1     17214  0.4499999993E+00  0.2500000010E+00  0.5097104932E-04  0.1707000000E+03  0.9975000000E+02 -0.8999999969E+01        15
      40       1  0.4000000000E+00         3    3         1     25789  0.4499998020E+00  0.2500000160E+00  0.3333670815E+00  0.1706999988E+03  0.9975000005E+02 -0.1100000005E+02        22
      41       1  0.4100000000E+00         1    1         1      9864  0.4499999996E+00  0.2500000017E+00  0.6667346112E+00  0.1707000000E+03  0.9975000001E+02 -0.6999999963E+01         9
      41       1  0.4100000000E+00         2    2         1     17214  0.4499999993E+00  0.2500000010E+00  0.5097375655E-04  0.1707000000E+03  0.9975000000E+02 -0.8999999968E+01        15
      41       1  0.4100000000E+00         3    3         1     25789  0.4499997971E+00  0.2500000164E+00  0.3333670785E+00  0.1706999988E+03  0.9975000005E+02 -0.1100000005E+02        22
      42       1  0.4200000000E+00         1    1         1      9864  0.4499999995E+00  0.2500000018E+00  0.6667346139E+00  0.1707000000E+03  0.9975000001E+02 -0.6999999963E+01         9
      42       1  0.4200000000E+00         2    2         1     17214  0.4499999992E+00  0.2500000010E+00  0.5097646378E-04  0.1707000000E+03  0.9975000000E+02 -0.8999999967E+01        15
      42       1  0.4200000000E+00         3    3         1     25789  0.4499997921E+00  0.2500000168E+00  0.3333670755E+00  0.1706999988E+03  0.9975000005E+02 -0.1100000005E+02        22
      43       1  0.4300000000E+00         1    1         1      9864  0.4499999995E+00  0.2500000018E+00  0.6667346166E+00  0.1707000000E+03  0.9975000001E+02 -0.6999999962E+01         9
      43       1  0.4300000000E+00         2    2         1     17214  0.4499999992E+00  0.2500000011E+00  0.5097917101E-04  0.1707000000E+03  0.9975000000E+02 -0.8999999966E+01        15
      43       1  0.4300000000E+00         3    3         1     25789  0.4499997872E+00  0.2500000172E+00  0.3333670726E+00  0.1706999987E+03  0.9975000005E+02 -0.1100000005E+02        22
      44       1  0.4400000000E+00         1    1         1      9864  0.4499999995E+00  0.2500000018E+00  0.6667346193E+00  0.1707000000E+03  0.9975000001E+02 -0.6999999961E+01         9
      44       1  0.4400000000E+00         2    2         1     17214  0.4499999992E+00  0.2500000011E+00  0.5098187825E-04  0.1707000000E+03  0.9975000000E+02 -0.8999999965E+01        15
      44       1  0.4400000000E+00         3    3         1     25789  0.4499997822E+00  0.2500000176E+00  0.3333670696E+00  0.1706999987E+03  0.9975000005E+02 -0.1100000005E+02        22
      45       1  0.4500000000E+00         1    1         1      9864  0.4499999995E+00  0.2500000019E+00  0.6667346220E+00  0.1707000000E+03  0.9975000001E+02 -0.6999999960E+01         9
      45       1  0.4500000000E+00         2    2         1     17214  0.4499999992E+00  0.2500000011E+00  0.5098458548E-04  0.1707000000E+03  0.9975000000E+02 -0.8999999965E+01        15
      45       1  0.4500000000E+00         3    3         1     25789  0.4499997773E+00  0.2500000180E+00  0.3333670667E+00  0.1706999987E+03  0.9975000005E+02 -0.1100000005E+02        22
      46       1  0.4600000000E+00         1    1         1      9864  0.4499999995E+00  0.2500000019E+00  0.6667346247E+00  0.1707000000E+03  0.9975000001E+02 -0.6999999959E+01         9
      46       1  0.4600000000E+00         2    2         1     17214  0.4499999992E+00  0.2500000011E+00  0.5098729271E-04  0.1707000000E+03  0.9975000000E+02 -0.8999999964E+01        15
      46       1  0.4600000000E+00         3    3         1     25789  0.4499997723E+00  0.2500000184E+00  0.3333670637E+00  0.1706999986E+03  0.9975000006E+02 -0.1100000005E+02        22
      47       1  0.4700000000E+00         1    1         1      9864  0.4499999995E+00  0.2500000020E+00  0.6667346275E+00  0.1707000000E+03  0.9975000001E+02 -0.6999999958E+01         9
      47       1  0.4700000000E+00         2    2         1     17214  0.4499999992E+00  0.2500000012E+00  0.5098999995E-04  0.1707000000E+03  0.9975000000E+02 -0.8999999963E+01        15
      47       1  0.4700000000E+00         3    3         1     25789  0.4499997674E+00  0.2500000188E+00  0.3333670607E+00  0.1706999986E+03  0.9975000006E+02 -0.1100000006E+02        22
      48       1  0.4800000000E+00         1    1         1      9864  0.4499999995E+00  0.2500000020E+00  0.6667346302E+00  0.1707000000E+03  0.9975000001E+02 -0.6999999958E+01         9
      48       1  0.4800000000E+00         2    2         1     17214  0.4499999991E+00  0.2500000012E+00  0.5099270718E-04  0.1707000000E+03  0.9975000000E+02 -0.8999999962E+01        15
      48       1  0.4800000000E+00         3    3         1     25789  0.4499997624E+00  0.2500000192E+00  0.3333670578E+00  0.1706999986E+03  0.9975000006E+02 -0.1100000006E+02        22
      49       1  0.4900000000E+00         1    1         1      9864  0.4499999995E+00  0.2500000020E+00  0.6667346329E+00  0.1707000000E+03  0.9975000001E+02 -0.6999999957E+01         9
      49       1  0.4900000000E+00         2    2         1     17214  0.4499999991E+00  0.2500000012E+00  0.5099541441E-04  0.1707000000E+03  0.9975000000E+02 -0.8999999961E+01        15
      49       1  0.4900000000E+00         3    3         1     25789  0.4499997575E+00  0.2500000196E+00  0.3333670548E+00  0.1706999985E+03  0.9975000006E+02 -0.1100000006E+02        22
      50       1  0.5000000000E+00         1    1         1      9864  0.4499999995E+00  0.2500000021E+00  0.6667346356E+00  0.1707000000E+03  0.9975000001E+02 -0.6999999956E+01         9
      50       1  0.5000000000E+00         2    2         1     17214  0.4499999991E+00  0.2500000012E+00  0.5099812165E-04  0.1707000000E+03  0.9975000000E+02 -0.8999999961E+01        15
      50       1  0.5000000000E+00         3    3         1     25789  0.4499997525E+00  0.2500000200E+00  0.3333670518E+00  0.1706999985E+03  0.9975000006E+02 -0.1100000006E+02        22
      51       1  0.5100000000E+00         1    1         1      9864  0.4499999994E+00  0.2500000021E+00  0.6667346383E+00  0.1707000000E+03  0.9975000001E+02 -0.6999999955E+01         9
      51       1  0.5100000000E+00         2    2         1     17214  0.4499999991E+00  0.2500000013E+00  0.5100082888E-04  0.1707000000E+03  0.9975000000E+02 -0.8999999960E+01        15
      51       1  0.5100000000E+00         3    3         1     25789  0.4499997476E+00  0.2500000204E+00  0.3333670489E+00  0.1706999985E+03  0.9975000006E+02 -0.1100000006E+02        22
      52       1  0.5200000000E+00         1    1         1      9864  0.4499999994E+00  0.2500000022E+00  0.6667346410E+00  0.1707000000E+03  0.9975000001E+02 -0.6999999954E+01         9
      52       1  0.5200000000E+00         2    2         1     17214  0.4499999991E+00  0.2500000013E+00  0.5100353611E-04  0.1707000000E+03  0.9975000000E+02 -0.8999999959E+01        15