MODPATH_TIMESERIES_FILE         7         2
    2   0.0000000000E+00  0.0000000000E+00  0.0000000000E+00  0.0000000000E+00
END HEADER
       0       1  0.0000000000E+00         1    1         1     10268  0.1333333000E+00  0.5000000000E+00  0.5865037000E+00  0.7069999995E+02  0.9975000000E+02 -0.7000000126E+01         2
       0       1  0.0000000000E+00         2    2         1     20068  0.1333333000E+00  0.5000000000E+00  0.7391866000E+00  0.7069999995E+02  0.9975000000E+02 -0.8999999871E+01         3
       0       1  0.0000000000E+00         3    3         1     20068  0.1333333000E+00  0.5000000000E+00  0.1557281000E+00  0.7069999995E+02  0.9975000000E+02 -0.1100000017E+02         3
       1       1  0.1000000000E-01         1    1         1     10268  0.1333332997E+00  0.5000000000E+00  0.5865037001E+00  0.7069999995E+02  0.9975000000E+02 -0.7000000126E+01         2
       1       1  0.1000000000E-01         2    2         1     20068  0.1333328666E+00  0.4999998416E+00  0.7391866000E+00  0.7069999930E+02  0.9974999976E+02 -0.8999999871E+01         3
       1       1  0.1000000000E-01         3    3         1     20068  0.1333328666E+00  0.4999998416E+00  0.1557281000E+00  0.7069999930E+02  0.9974999976E+02 -0.1100000017E+02         3
       2       1  0.2000000000E-01         1    1         1     10268  0.1333332995E+00  0.5000000001E+00  0.5865037001E+00  0.7069999995E+02  0.9975000000E+02 -0.7000000126E+01         2
       2       1  0.2000000000E-01         2    2         1     20068  0.1333324332E+00  0.4999996831E+00  0.7391866000E+00  0.7069999865E+02  0.9974999952E+02 -0.8999999871E+01         3
       2       1  0.2000000000E-01         3    3         1     20068  0.1333324332E+00  0.4999996831E+00  0.1557281000E+00  0.7069999865E+02  0.9974999952E+02 -0.1100000017E+02         3
       3       1  0.3000000000E-01         1    1         1     10268  0.1333332992E+00  0.5000000001E+00  0.5865037002E+00  0.7069999995E+02  0.9975000000E+02 -0.7000000126E+01         2
       3       1  0.3000000000E-01         2    2         1     20068  0.1333319998E+00  0.4999995247E+00  0.7391866000E+00  0.7069999800E+02  0.9974999929E+02 -0.8999999871E+01         3
       3       1  0.3000000000E-01         3    3         1     20068  0.1333319998E+00  0.4999995247E+00  0.1557281000E+00  0.7069999800E+02  0.9974999929E+02 -0.1100000017E+02         3
       4       1  0.4000000000E-01         1    1         1     10268  0.1333332989E+00  0.5000000001E+00  0.5865037002E+00  0.7069999995E+02  0.9975000000E+02 -0.7000000126E+01         2
       4       1  0.4000000000E-01         2    2         1     20068  0.1333315664E+00  0.4999993663E+00  0.7391866000E+00  0.7069999735E+02  0.9974999905E+02 -0.8999999871E+01         3
       4       1  0.4000000000E-01         3    3         1     20068  0.1333315664E+00  0.4999993663E+00  0.1557281000E+00  0.7069999735E+02  0.9974999905E+02 -0.1100000017E+02         3
       5       1  0.5000000000E-01         1    1         1     10268  0.1333332987E+00  0.5000000002E+00  0.5865037003E+00  0.7069999995E+02  0.9975000000E+02 -0.7000000125E+01         2
       5       1  0.5000000000E-01         2    2         1     20068  0.1333311330E+00  0.4999992078E+00  0.7391866000E+00  0.7069999670E+02  0.9974999881E+02 -0.8999999871E+01         3
       5       1  0.5000000000E-01         3    3         1     20068  0.1333311330E+00  0.4999992078E+00  0.1557281000E+00  0.7069999670E+02  0.9974999881E+02 -0.1100000017E+02         3
       6       1  0.6000000000E-01         1    1         1     10268  0.1333332984E+00  0.5000000002E+00  0.5865037004E+00  0.7069999995E+02  0.9975000000E+02 -0.7000000125E+01         2
       6       1  0.6000000000E-01         2    2         1     20068  0.1333306996E+00  0.4999990494E+00  0.7391866000E+00  0.7069999605E+02  0.9974999857E+02 -0.8999999871E+01         3
       6       1  0.6000000000E-01         3    3         1     20068  0.1333306996E+00  0.4999990494E+00  0.1557281000E+00  0.7069999605E+02  0.9974999857E+02 -0.1100000017E+02         3
       7       1  0.7000000000E-01         1    1         1     10268  0.1333332981E+00  0.5000000002E+00  0.5865037004E+00  0.7069999995E+02  0.9975000000E+02 -0.7000000125E+01         2
       7       1  0.7000000000E-01         2    2         1     20068  0.1333302662E+00  0.4999988910E+00  0.7391866000E+00  0.7069999540E+02  0.9974999834E+02 -0.8999999871E+01         3
       7       1  0.7000000000E-01         3    3         1     20068  0.1333302662E+00  0.4999988910E+00  0.1557281000E+00  0.7069999540E+02  0.9974999834E+02 -0.1100000017E+02         3
       8       1  0.8000000000E-01         1    1         1     10268  0.1333332978E+00  0.5000000003E+00  0.5865037005E+00  0.7069999995E+02  0.9975000000E+02 -0.7000000125E+01         2
       8       1  0.8000000000E-01         2    2         1     20068  0.1333298328E+00  0.4999987326E+00  0.7391866000E+00  0.7069999475E+02  0.9974999810E+02 -0.8999999871E+01         3
       8       1  0.8000000000E-01         3    3         1     20068  0.1333298328E+00  0.4999987326E+00  0.1557281000E+00  0.7069999475E+02  0.9974999810E+02 -0.1100000017E+02         3
       9       1  0.9000000000E-01         1    1         1     10268  0.1333332976E+00  0.5000000003E+00  0.5865037005E+00  0.7069999995E+02  0.9975000000E+02 -0.7000000125E+01         2
       9       1  0.9000000000E-01         2    2         1     20068  0.1333293994E+00  0.4999985741E+00  0.7391866000E+00  0.7069999410E+02  0.9974999786E+02 -0.8999999871E+01         3
       9       1  0.9000000000E-01         3    3         1     20068  0.1333293994E+00  0.4999985741E+00  0.1557281000E+00  0.7069999410E+02  0.9974999786E+02 -0.1100000017E+02         3
      10       1  0.1000000000E+00         1    1         1     10268  0.1333332973E+00  0.5000000004E+00  0.5865037006E+00  0.7069999995E+02  0.9975000000E+02 -0.7000000125E+01         2
      10       1  0.1000000000E+00         2    2         1     20068  0.1333289660E+00  0.4999984157E+00  0.7391866000E+00  0.7069999345E+02  0.9974999762E+02 -0.8999999871E+01         3
      10       1  0.1000000000E+00         3    3         1     20068  0.1333289660E+00  0.4999984157E+00  0.1557281000E+00  0.7069999345E+02  0.9974999762E+02 -0.1100000017E+02         3
      11       1  0.1100000000E+00         1    1         1     10268  0.1333332970E+00  0.5000000004E+00  0.5865037007E+00  0.7069999995E+02  0.9975000000E+02 -0.7000000125E+01         2
      11       1  0.1100000000E+00         2    2         1     20068  0.1333285326E+00  0.4999982573E+00  0.7391866000E+00  0.7069999280E+02  0.9974999739E+02 -0.8999999871E+01         3
      11       1  0.1100000000E+00         3    3         1     20068  0.1333285326E+00  0.4999982573E+00  0.1557281000E+00  0.7069999280E+02  0.9974999739E+02 -0.1100000017E+02         3
      12       1  0.1200000000E+00         1    1         1     10268  0.1333332968E+00  0.5000000004E+00  0.5865037007E+00  0.7069999995E+02  0.9975000000E+02 -0.7000000125E+01         2
      12       1  0.1200000000E+00         2    2         1     20068  0.1333280992E+00  0.4999980988E+00  0.7391866000E+00  0.7069999215E+02  0.9974999715E+02 -0.8999999871E+01         3
      12       1  0.1200000000E+00         3    3         1     20068  0.1333280992E+00  0.4999980988E+00  0.1557281000E+00  0.7069999215E+02  0.9974999715E+02 -0.1100000017E+02         3
      13       1  0.1300000000E+00         1    1         1     10268  0.1333332965E+00  0.5000000005E+00  0.5865037008E+00  0.7069999994E+02  0.9975000000E+02 -0.7000000125E+01         2
      13       1  0.1300000000E+00         2    2         1     20068  0.1333276658E+00  0.4999979404E+00  0.7391866000E+00  0.7069999150E+02  0.9974999691E+02 -0.8999999871E+01         3
      13       1  0.1300000000E+00         3    3         1     20068  0.1333276658E+00  0.4999979404E+00  0.1557281000E+00  0.7069999150E+02  0.9974999691E+02 -0.1100000017E+02         3
      14       1  0.1400000000E+00         1    1         1     10268  0.1333332962E+00  0.5000000005E+00  0.5865037008E+00  0.7069999994E+02  0.9975000000E+02 -0.7000000124E+01         2
      14       1  0.1400000000E+00         2    2         1     20068  0.1333272324E+00  0.4999977820E+00  0.7391866000E+00  0.7069999085E+02  0.9974999667E+02 -0.8999999871E+01         3
      14       1  0.1400000000E+00         3    3         1     20068  0.1333272324E+00  0.4999977820E+00  0.1557281000E+00  0.7069999085E+02  0.9974999667E+02 -0.1100000017E+02         3
      15       1  0.1500000000E+00         1    1         1     10268  0.1333332960E+00  0.5000000005E+00  0.5865037009E+00  0.7069999994E+02  0.9975000000E+02 -0.7000000124E+01         2
      15       1  0.1500000000E+00         2    2         1     20068  0.1333267990E+00  0.4999976235E+00  0.7391866000E+00  0.7069999020E+02  0.9974999644E+02 -0.8999999871E+01         3
      15       1  0.1500000000E+00         3    3         1     20068  0.1333267990E+00  0.4999976235E+00  0.1557281000E+00  0.7069999020E+02  0.9974999644E+02 -0.1100000017E+02         3
      16       1  0.1600000000E+00         1    1         1     10268  0.1333332957E+00  0.5000000006E+00  0.5865037010E+00  0.7069999994E+02  0.9975000000E+02 -0.7000000124E+01         2
      16       1  0.1600000000E+00         2    2         1     20068  0.1333263656E+00  0.4999974651E+00  0.7391866000E+00  0.7069998955E+02  0.9974999620E+02 -0.8999999871E+01         3
      16       1  0.1600000000E+00         3    3         1     20068  0.1333263656E+00  0.4999974651E+00  0.1557281000E+00  0.7069998955E+02  0.9974999620E+02 -0.1100000017E+02         3
      17       1  0.1700000000E+00         1    1         1     10268  0.1333332954E+00  0.5000000006E+00  0.5865037010E+00  0.7069999994E+02  0.9975000000E+02 -0.7000000124E+01         2
      17       1  0.1700000000E+00         2    2         1     20068  0.1333259322E+00  0.4999973067E+00  0.7391866000E+00  0.7069998890E+02  0.9974999596E+02 -0.8999999871E+01         3
      17       1  0.1700000000E+00         3    3         1     20068  0.1333259322E+00  0.4999973067E+00  0.1557281000E+00  0.7069998890E+02  0.9974999596E+02 -0.1100000017E+02         3
      18       1  0.1800000000E+00         1    1         1     10268  0.1333332951E+00  0.5000000006E+00  0.5865037011E+00  0.7069999994E+02  0.9975000000E+02 -0.7000000124E+01         2
      18       1  0.1800000000E+00         2    2         1     20068  0.1333254988E+00  0.4999971483E+00  0.7391866000E+00  0.7069998825E+02  0.9974999572E+02 -0.8999999871E+01         3
      18       1  0.1800000000E+00         3    3         1     20068  0.1333254988E+00  0.4999971483E+00  0.1557281000E+00  0.7069998825E+02  0.9974999572E+02 -0.1100000017E+02         3
      19       1  0.1900000000E+00         1    1         1     10268  0.1333332949E+00  0.5000000007E+00  0.5865037011E+00  0.7069999994E+02  0.9975000000E+02 -0.7000000124E+01         2
      19       1  0.1900000000E+00         2    2         1     20068  0.1333250654E+00  0.4999969898E+00  0.7391866000E+00  0.7069998760E+02  0.9974999548E+02 -0.8999999871E+01         3
      19       1  0.1900000000E+00         3    3         1     20068  0.1333250654E+00  0.4999969898E+00  0.1557281000E+00  0.7069998760E+02  0.9974999548E+02 -0.1100000017E+02         3
      20       1  0.2000000000E+00         1    1         1     10268  0.1333332946E+00  0.5000000007E+00  0.5865037012E+00  0.7069999994E+02  0.9975000000E+02 -0.7000000124E+01         2
      20       1  0.2000000000E+00         2    2         1     20068  0.1333246320E+00  0.4999968314E+00  0.7391866000E+00  0.7069998695E+02  0.9974999525E+02 -0.8999999871E+01         3
      20       1  0.2000000000E+00         3    3         1     20068  0.1333246320E+00  0.4999968314E+00  0.1557281000E+00  0.7069998695E+02  0.9974999525E+02 -0.1100000017E+02         3
      21       1  0.2100000000E+00         1    1         1     10268  0.1333332943E+00  0.5000000007E+00  0.5865037013E+00  0.7069999994E+02  0.9975000000E+02 -0.7000000124E+01         2
      21       1  0.2100000000E+00         2    2         1     20068  0.1333241986E+00  0.4999966730E+00  0.7391866000E+00  0.7069998630E+02  0.9974999501E+02 -0.8999999871E+01         3
      21       1  0.2100000000E+00         3    3         1     20068  0.1333241986E+00  0.4999966730E+00  0.1557281000E+00  0.7069998630E+02  0.9974999501E+02 -0.1100000017E+02         3
      22       1  0.2200000000E+00         1    1         1     10268  0.1333332941E+00  0.5000000008E+00  0.5865037013E+00  0.7069999994E+02  0.9975000000E+02 -0.7000000124E+01         2
      22       1  0.2200000000E+00         2    2         1     20068  0.1333237652E+00  0.4999965145E+00  0.7391866000E+00  0.7069998565E+02  0.9974999477E+02 -0.8999999871E+01         3
      22       1  0.2200000000E+00         3    3         1     20068  0.1333237652E+00  0.4999965145E+00  0.1557281000E+00  0.7069998565E+02  0.9974999477E+02 -0.1100000017E+02         3
      23       1  0.2300000000E+00         1    1         1     10268  0.1333332938E+00  0.5000000008E+00  0.5865037014E+00  0.7069999994E+02  0.9975000000E+02 -0.7000000123E+01         2
      23       1  0.2300000000E+00         2    2         1     20068  0.1333233318E+00  0.4999963561E+00  0.7391866000E+00  0.7069998500E+02  0.9974999453E+02 -0.8999999871E+01         3
      23       1  0.2300000000E+00         3    3         1     20068  0.1333233318E+00  0.4999963561E+00  0.1557281000E+00  0.7069998500E+02  0.9974999453E+02 -0.1100000017E+02         3
      24       1  0.2400000000E+00         1    1         1     10268  0.1333332935E+00  0.5000000009E+00  0.5865037014E+00  0.7069999994E+02  0.9975000000E+02 -0.7000000123E+01         2
      24       1  0.2400000000E+00         2    2         1     20068  0.1333228985E+00  0.4999961977E+00  0.7391866000E+00  0.7069998435E+02  0.9974999430E+02 -0.8999999871E+01         3
      24       1  0.2400000000E+00         3    3         1     20068  0.1333228985E+00  0.4999961977E+00  0.1557281000E+00  0.7069998435E+02  0.9974999430E+02 -0.1100000017E+02         3
      25       1  0.2500000000E+00         1    1         1     10268  0.1333332933E+00  0.5000000009E+00  0.5865037015E+00  0.7069999994E+02  0.9975000000E+02 -0.7000000123E+01         2
      25       1  0.2500000000E+00         2    2         1     20068  0.1333224651E+00  0.4999960392E+00  0.7391866000E+00  0.7069998370E+02  0.9974999406E+02 -0.8999999871E+01         3
      25       1  0.2500000000E+00         3    3         1     20068  0.1333224651E+00  0.4999960392E+00  0.1557281000E+00  0.7069998370E+02  0.9974999406E+02 -0.1100000017E+02         3
      26       1  0.2600000000E+00         1    1         1     10268  0.1333332930E+00  0.5000000009E+00  0.5865037016E+00  0.7069999994E+02  0.9975000000E+02 -0.7000000123E+01         2
      26       1  0.2600000000E+00         2    2         1     20068  0.1333220317E+00  0.4999958808E+00  0.7391866000E+00  0.7069998305E+02  0.9974999382E+02 -0.8999999871E+01         3
      26       1  0.2600000000E+00         3    3         1     20068  0.1333220317E+00  0.4999958808E+00  0.1557281000E+00  0.7069998305E+02  0.9974999382E+02 -0.1100000017E+02         3
      27       1  0.2700000000E+00         1    1         1     10268  0.1333332927E+00  0.5000000010E+00  0.5865037016E+00  0.7069999994E+02  0.9975000000E+02 -0.7000000123E+01         2
      27       1  0.2700000000E+00         2    2         1     20068  0.1333215983E+00  0.4999957224E+00  0.7391866000E+00  0.7069998240E+02  0.9974999358E+02 -0.8999999871E+01         3
      27       1  0.2700000000E+00         3    3         1     20068  0.1333215983E+00  0.4999957224E+00  0.1557281000E+00  0.7069998240E+02  0.9974999358E+02 -0.1100000017E+02         3
      28       1  0.2800000000E+00         1    1         1     10268  0.1333332924E+00  0.5000000010E+00  0.5865037017E+00  0.7069999994E+02  0.9975000000E+02 -0.7000000123E+01         2
      28       1  0.2800000000E+00         2    2         1     20068  0.1333211649E+00  0.4999955640E+00  0.7391866000E+00  0.7069998175E+02  0.9974999335E+02 -0.8999999871E+01         3
      28       1  0.2800000000E+00         3    3         1     20068  0.1333211649E+00  0.4999955640E+00  0.1557281000E+00  0.7069998175E+02  0.9974999335E+02 -0.1100000017E+02         3
      29       1  0.2900000000E+00         1    1         1     10268  0.1333332922E+00  0.5000000010E+00  0.5865037017E+00  0.7069999994E+02  0.9975000000E+02 -0.7000000123E+01         2
      29       1  0.2900000000E+00         2    2         1     20068  0.1333207315E+00  0.4999954055E+00  0.7391866001E+00  0.7069998110E+02  0.9974999311E+02 -0.8999999871E+01         3
      29       1  0.2900000000E+00         3    3         1     20068  0.1333207315E+00  0.4999954055E+00  0.1557281000E+00  0.7069998110E+02  0.9974999311E+02 -0.1100000017E+02         3
      30       1  0.3000000000E+00         1    1         1     10268  0.1333332919E+00  0.5000000011E+00  0.5865037018E+00  0.7069999994E+02  0.9975000000E+02 -0.7000000123E+01         2
      30       1  0.3000000000E+00         2    2         1     20068  0.1333202981E+00  0.4999952471E+00  0.7391866001E+00  0.7069998045E+02  0.9974999287E+02 -0.8999999871E+01         3
      30       1  0.3000000000E+00         3    3         1     20068  0.1333202981E+00  0.4999952471E+00  0.1557281000E+00  0.7069998045E+02  0.9974999287E+02 -0.1100000017E+02         3
      31       1  0.3100000000E+00         1    1         1     10268  0.1333332916E+00  0.5000000011E+00  0.5865037019E+00  0.7069999994E+02  0.9975000000E+02 -0.7000000123E+01         2
      31       1  0.3100000000E+00         2    2         1     20068  0.1333198647E+00  0.4999950887E+00  0.7391866001E+00  0.7069997980E+02  0.9974999263E+02 -0.8999999871E+01         3
      31       1  0.3100000000E+00         3    3         1     20068  0.1333198647E+00  0.4999950887E+00  0.1557281000E+00  0.7069997980E+02  0.9974999263E+02 -0.1100000017E+02         3
      32       1  0.3200000000E+00         1    1         1     10268  0.1333332914E+00  0.5000000011E+00  0.5865037019E+00  0.7069999994E+02  0.9975000000E+02 -0.7000000122E+01         2
      32       1  0.3200000000E+00         2    2         1     20068  0.1333194313E+00  0.4999949302E+00  0.7391866001E+00  0.7069997915E+02  0.9974999240E+02 -0.8999999871E+01         3
      32       1  0.3200000000E+00         3    3         1     20068  0.1333194313E+00  0.4999949302E+00  0.1557281000E+00  0.7069997915E+02  0.9974999240E+02 -0.1100000017E+02         3
      33       1  0.3300000000E+00         1    1         1     10268  0.1333332911E+00  0.5000000012E+00  0.5865037020E+00  0.7069999994E+02  0.9975000000E+02 -0.7000000122E+01         2
      33       1  0.3300000000E+00         2    2         1     20068  0.1333189979E+00  0.4999947718E+00  0.7391866001E+00  0.7069997850E+02  0.9974999216E+02 -0.8999999871E+01         3
      33       1  0.3300000000E+00         3    3         1     20068  0.1333189979E+00  0.4999947718E+00  0.1557281000E+00  0.7069997850E+02  0.9974999216E+02 -0.1100000017E+02         3
      34       1  0.3400000000E+00         1    1         1     10268  0.1333332908E+00  0.5000000012E+00  0.5865037020E+00  0.7069999994E+02  0.9975000000E+02 -0.7000000122E+01         2
      34       1  0.3400000000E+00         2    2         1     20068  0.1333185645E+00  0.4999946134E+00  0.7391866001E+00  0.7069997785E+02  0.9974999192E+02 -0.8999999871E+01         3
      34       1  0.3400000000E+00         3    3         1     20068  0.1333185645E+00  0.4999946134E+00  0.1557281000E+00  0.7069997785E+02  0.9974999192E+02 -0.1100000017E+02         3
      35       1  0.3500000000E+00         1    1         1     10268  0.1333332906E+00  0.5000000012E+00  0.5865037021E+00  0.7069999994E+02  0.9975000000E+02 -0.7000000122E+01         2
      35       1  0.3500000000E+00         2    2         1     20068  0.1333181311E+00  0.4999944549E+00  0.7391866001E+00  0.7069997720E+02  0.9974999168E+02 -0.8999999871E+01         3
      35       1  0.3500000000E+00         3    3         1     20068  0.1333181311E+00  0.4999944549E+00  0.1557281000E+00  0.7069997720E+02  0.9974999168E+02 -0.1100000017E+02         3
      36       1  0.3600000000E+00         1    1         1     10268  0.1333332903E+00  0.5000000013E+00  0.5865037022E+00  0.7069999994E+02  0.9975000000E+02 -0.7000000122E+01         2
      36       1  0.3600000000E+00         2    2         1     20068  0.1333176977E+00  0.4999942965E+00  0.7391866001E+00  0.7069997655E+02  0.9974999144E+02 -0.8999999871E+01         3
      36       1  0.3600000000E+00         3    3         1     20068  0.1333176977E+00  0.4999942965E+00  0.1557281000E+00  0.7069997655E+02  0.9974999144E+02 -0.1100000017E+02         3
      37       1  0.3700000000E+00         1    1         1     10268  0.1333332900E+00  0.5000000013E+00  0.5865037022E+00  0.7069999994E+02  0.9975000000E+02 -0.7000000122E+01         2
      37       1  0.3700000000E+00         2    2         1     20068  0.1333172643E+00  0.4999941381E+00  0.7391866001E+00  0.7069997590E+02  0.9974999121E+02 -0.8999999871E+01         3
      37       1  0.3700000000E+00         3    3         1     20068  0.1333172643E+00  0.4999941381E+00  0.1557281000E+00  0.7069997590E+02  0.9974999121E+02 -0.1100000017E+02         3
      38       1  0.3800000000E+00         1    1         1     10268  0.1333332897E+00  0.5000000014E+00  0.5865037023E+00  0.7069999993E+02  0.9975000000E+02 -0.7000000122E+01         2
      38       1  0.3800000000E+00         2    2         1     20068  0.1333168309E+00  0.4999939797E+00  0.7391866001E+00  0.7069997525E+02  0.9974999097E+02 -0.8999999871E+01         3
      38       1  0.3800000000E+00         3    3         1     20068  0.1333168309E+00  0.4999939797E+00  0.1557281000E+00  0.7069997525E+02  0.9974999097E+02 -0.1100000017E+02         3
      39       1  0.3900000000E+00         1    1         1     10268  0.1333332895E+00  0.5000000014E+00  0.5865037023E+00  0.7069999993E+02  0.9975000000E+02 -0.7000000122E+01         2
      39       1  0.3900000000E+00         2    2         1     20068  0.1333163975E+00  0.4999938212E+00  0.7391866001E+00  0.7069997460E+02  0.9974999073E+02 -0.8999999871E+01         3
      39       1  0.3900000000E+00         3    3         1     20068  0.1333163975E+00  0.4999938212E+00  0.1557281000E+00  0.7069997460E+02  0.9974999073E+02 -0.1100000017E+02         3
      40       1  0.4000000000E+00         1    1         1     10268  0.1333332892E+00  0.5000000014E+00  0.5865037024E+00  0.7069999993E+02  0.9975000000E+02 -0.7000000122E+01         2
      40       1  0.4000000000E+00         2    2         1     20068  0.1333159641E+00  0.4999936628E+00  0.7391866001E+00  0.7069997395E+02  0.9974999049E+02 -0.8999999871E+01         3
      40       1  0.4000000000E+00         3    3         1     20068  0.1333159641E+00  0.4999936628E+00  0.1557281000E+00  0.7069997395E+02  0.9974999049E+02 -0.1100000017E+02         3
      41       1  0.4100000000E+00         1    1         1     10268  0.1333332889E+00  0.5000000015E+00  0.5865037025E+00  0.7069999993E+02  0.9975000000E+02 -0.7000000121E+01         2
      41       1  0.4100000000E+00         2    2         1     20068  0.1333155307E+00  0.4999935044E+00  0.7391866001E+00  0.7069997330E+02  0.9974999026E+02 -0.8999999871E+01         3
      41       1  0.4100000000E+00         3    3         1     20068  0.1333155307E+00  0.4999935044E+00  0.1557281000E+00  0.7069997330E+02  0.9974999026E+02 -0.1100000017E+02         3
      42       1  0.4200000000E+00         1    1         1     10268  0.1333332887E+00  0.5000000015E+00  0.5865037025E+00  0.7069999993E+02  0.9975000000E+02 -0.7000000121E+01         2
      42       1  0.4200000000E+00         2    2         1     20068  0.1333150973E+00  0.4999933459E+00  0.7391866001E+00  0.7069997265E+02  0.9974999002E+02 -0.8999999871E+01         3
      42       1  0.4200000000E+00         3    3         1     20068  0.1333150973E+00  0.4999933459E+00  0.1557281000E+00  0.7069997265E+02  0.9974999002E+02 -0.1100000017E+02         3
      43       1  0.4300000000E+00         1    1         1     10268  0.1333332884E+00  0.5000000015E+00  0.5865037026E+00  0.7069999993E+02  0.9975000000E+02 -0.7000000121E+01         2
      43       1  0.4300000000E+00         2    2         1     20068  0.1333146639E+00  0.4999931875E+00  0.7391866001E+00  0.7069997200E+02  0.9974998978E+02 -0.8999999871E+01         3
      43       1  0.4300000000E+00         3    3         1     20068  0.1333146639E+00  0.4999931875E+00  0.1557281000E+00  0.7069997200E+02  0.9974998978E+02 -0.1100000017E+02         3
      44       1  0.4400000000E+00         1    1         1     10268  0.1333332881E+00  0.5000000016E+00  0.5865037026E+00  0.7069999993E+02  0.9975000000E+02 -0.7000000121E+01         2
      44       1  0.4400000000E+00         2    2         1     20068  0.1333142305E+00  0.4999930291E+00  0.7391866001E+00  0.7069997135E+02  0.9974998954E+02 -0.8999999871E+01         3
      44       1  0.4400000000E+00         3    3         1     20068  0.1333142305E+00  0.4999930291E+00  0.1557281000E+00  0.7069997135E+02  0.9974998954E+02 -0.1100000017E+02         3
      45       1  0.4500000000E+00         1    1         1     10268  0.1333332879E+00  0.5000000016E+00  0.5865037027E+00  0.7069999993E+02  0.9975000000E+02 -0.7000000121E+01         2
      45       1  0.4500000000E+00         2    2         1     20068  0.1333137971E+00  0.4999928706E+00  0.7391866001E+00  0.7069997070E+02  0.9974998931E+02 -0.8999999871E+01         3
      45       1  0.4500000000E+00         3    3         1     20068  0.1333137971E+00  0.4999928706E+00  0.1557281000E+00  0.7069997070E+02  0.9974998931E+02 -0.1100000017E+02         3
      46       1  0.4600000000E+00         1    1         1     10268  0.1333332876E+00  0.5000000016E+00  0.5865037028E+00  0.7069999993E+02  0.9975000000E+02 -0.7000000121E+01         2
      46       1  0.4600000000E+00         2    2         1     20068  0.1333133637E+00  0.4999927122E+00  0.7391866001E+00  0.7069997005E+02  0.9974998907E+02 -0.8999999871E+01         3
      46       1  0.4600000000E+00         3    3         1     20068  0.1333133637E+00  0.4999927122E+00  0.1557281000E+00  0.7069997005E+02  0.9974998907E+02 -0.1100000017E+02         3
      47       1  0.4700000000E+00         1    1         1     10268  0.1333332873E+00  0.5000000017E+00  0.5865037028E+00  0.7069999993E+02  0.9975000000E+02 -0.7000000121E+01         2
      47       1  0.4700000000E+00         2    2         1     20068  0.1333129303E+00  0.4999925538E+00  0.7391866001E+00  0.7069996940E+02  0.9974998883E+02 -0.8999999871E+01         3
      47       1  0.4700000000E+00         3    3         1     20068  0.1333129303E+00  0.4999925538E+00  0.1557281000E+00  0.7069996940E+02  0.9974998883E+02 -0.1100000017E+02         3
      48       1  0.4800000000E+00         1    1         1     10268  0.1333332870E+00  0.5000000017E+00  0.5865037029E+00  0.7069999993E+02  0.9975000000E+02 -0.7000000121E+01         2
      48       1  0.4800000000E+00         2    2         1     20068  0.1333124969E+00  0.4999923953E+00  0.7391866001E+00  0.7069996875E+02  0.9974998859E+02 -0.8999999871E+01         3
      48       1  0.4800000000E+00         3    3         1     20068  0.1333124969E+00  0.4999923953E+00  0.1557281000E+00  0.7069996875E+02  0.9974998859E+02 -0.1100000017E+02         3
      49       1  0.4900000000E+00         1    1         1     10268  0.1333332868E+00  0.5000000017E+00  0.5865037029E+00  0.7069999993E+02  0.9975000000E+02 -0.7000000121E+01         2
      49       1  0.4900000000E+00         2    2         1     20068  0.1333120635E+00  0.4999922369E+00  0.7391866001E+00  0.7069996810E+02  0.9974998836E+02 -0.8999999871E+01         3
      49       1  0.4900000000E+00         3    3         1     20068  0.1333120635E+00  0.4999922369E+00  0.1557281000E+00  0.7069996810E+02  0.9974998836E+02 -0.1100000017E+02         3
      50       1  0.5000000000E+00         1    1         1     10268  0.1333332865E+00  0.5000000018E+00  0.5865037030E+00  0.7069999993E+02  0.9975000000E+02 -0.7000000120E+01         2
      50       1  0.5000000000E+00         2    2         1     20068  0.1333116301E+00  0.4999920785E+00  0.7391866001E+00  0.7069996745E+02  0.9974998812E+02 -0.8999999871E+01         3
      50       1  0.5000000000E+00         3    3         1     20068  0.1333116301E+00  0.4999920785E+00  0.1557281000E+00  0.7069996745E+02  0.9974998812E+02 -0.1100000017E+02         3
      51       1  0.5100000000E+00         1    1         1     10268  0.1333332862E+00  0.5000000018E+00  0.5865037031E+00  0.7069999993E+02  0.9975000000E+02 -0.7000000120E+01         2
      51       1  0.5100000000E+00         2    2         1     20068  0.1333111967E+00  0.4999919201E+00  0.7391866001E+00  0.7069996680E+02  0.9974998788E+02 -0.8999999871E+01         3
      51       1  0.5100000000E+00         3    3         1     20068  0.1333111967E+00  0.4999919201E+00  0.1557281000E+00  0.7069996680E+02  0.9974998788E+02 -0.1100000017E+02         3
      52       1  0.5200000000E+00         1    1         1     10268  0.1333332860E+00  0.5000000019E+00  0.5865037031E+00  0.7069999993E+02  0.9975000000E+02 -0.7000000120E+01         2
      52       1  0.5200000000E+00         2    2         1     20068  0.1333107633E+00  0.4999917616E+00  0.7391866001E+00  0.7069996615E+02  0.9974998764E+02 -0.8999999871E+01         3