# File generated by Flopy version 3.8.2 on 01/15/2025 at 14:15:56.
BEGIN options
  BUDGET  FILEOUT  test.cbc
  HEAD  FILEOUT  test.hds
END options

BEGIN period  1
  SAVE  HEAD  LAST
  SAVE  BUDGET  LAST
  PRINT  BUDGET  ALL
END period  1

