# File generated by Flopy version 3.8.2 on 11/07/2024 at 16:53:20.
BEGIN options
  SAVE_FLOWS
END options

BEGIN dimensions
  MAXBOUND  8040
END dimensions

BEGIN period  1
  3 1 1 10
  3 2 1 10
  3 3 1 10
  3 4 1 10
  3 5 1 10
  3 6 1 10
  3 7 1 10
  3 8 1 10
  3 9 1 10
  3 10 1 10
  3 11 1 10
  3 12 1 10
  3 13 1 10
  3 14 1 10
  3 15 1 10
  3 16 1 10
  3 17 1 10
  3 18 1 10
  3 19 1 10
  3 20 1 10
  3 21 1 10
  3 22 1 10
  3 23 1 10
  3 24 1 10
  3 25 1 10
  3 26 1 10
  3 27 1 10
  3 28 1 10
  3 29 1 10
  3 30 1 10
  3 31 1 10
  3 32 1 10
  3 33 1 10
  3 34 1 10
  3 35 1 10
  3 36 1 10
  3 37 1 10
  3 38 1 10
  3 39 1 10
  3 40 1 10
  3 41 1 10
  3 42 1 10
  3 43 1 10
  3 44 1 10
  3 45 1 10
  3 46 1 10
  3 47 1 10
  3 48 1 10
  3 49 1 10
  3 50 1 10
  3 51 1 10
  3 52 1 10
  3 53 1 10
  3 54 1 10
  3 55 1 10
  3 56 1 10
  3 57 1 10
  3 58 1 10
  3 59 1 10
  3 60 1 10
  3 61 1 10
  3 62 1 10
  3 63 1 10
  3 64 1 10
  3 65 1 10
  3 66 1 10
  3 67 1 10
  4 1 1 10
  4 2 1 10
  4 3 1 10
  4 4 1 10
  4 5 1 10
  4 6 1 10
  4 7 1 10
  4 8 1 10
  4 9 1 10
  4 10 1 10
  4 11 1 10
  4 12 1 10
  4 13 1 10
  4 14 1 10
  4 15 1 10
  4 16 1 10
  4 17 1 10
  4 18 1 10
  4 19 1 10
  4 20 1 10
  4 21 1 10
  4 22 1 10
  4 23 1 10
  4 24 1 10
  4 25 1 10
  4 26 1 10
  4 27 1 10
  4 28 1 10
  4 29 1 10
  4 30 1 10
  4 31 1 10
  4 32 1 10
  4 33 1 10
  4 34 1 10
  4 35 1 10
  4 36 1 10
  4 37 1 10
  4 38 1 10
  4 39 1 10
  4 40 1 10
  4 41 1 10
  4 42 1 10
  4 43 1 10
  4 44 1 10
  4 45 1 10
  4 46 1 10
  4 47 1 10
  4 48 1 10
  4 49 1 10
  4 50 1 10
  4 51 1 10
  4 52 1 10
  4 53 1 10
  4 54 1 10
  4 55 1 10
  4 56 1 10
  4 57 1 10
  4 58 1 10
  4 59 1 10
  4 60 1 10
  4 61 1 10
  4 62 1 10
  4 63 1 10
  4 64 1 10
  4 65 1 10
  4 66 1 10
  4 67 1 10
  5 1 1 10
  5 2 1 10
  5 3 1 10
  5 4 1 10
  5 5 1 10
  5 6 1 10
  5 7 1 10
  5 8 1 10
  5 9 1 10
  5 10 1 10
  5 11 1 10
  5 12 1 10
  5 13 1 10
  5 14 1 10
  5 15 1 10
  5 16 1 10
  5 17 1 10
  5 18 1 10
  5 19 1 10
  5 20 1 10
  5 21 1 10
  5 22 1 10
  5 23 1 10
  5 24 1 10
  5 25 1 10
  5 26 1 10
  5 27 1 10
  5 28 1 10
  5 29 1 10
  5 30 1 10
  5 31 1 10
  5 32 1 10
  5 33 1 10
  5 34 1 10
  5 35 1 10
  5 36 1 10
  5 37 1 10
  5 38 1 10
  5 39 1 10
  5 40 1 10
  5 41 1 10
  5 42 1 10
  5 43 1 10
  5 44 1 10
  5 45 1 10
  5 46 1 10
  5 47 1 10
  5 48 1 10
  5 49 1 10
  5 50 1 10
  5 51 1 10
  5 52 1 10
  5 53 1 10
  5 54 1 10
  5 55 1 10
  5 56 1 10
  5 57 1 10
  5 58 1 10
  5 59 1 10
  5 60 1 10
  5 61 1 10
  5 62 1 10
  5 63 1 10
  5 64 1 10
  5 65 1 10
  5 66 1 10
  5 67 1 10
  6 1 1 10
  6 2 1 10
  6 3 1 10
  6 4 1 10
  6 5 1 10
  6 6 1 10
  6 7 1 10
  6 8 1 10
  6 9 1 10
  6 10 1 10
  6 11 1 10
  6 12 1 10
  6 13 1 10
  6 14 1 10
  6 15 1 10
  6 16 1 10
  6 17 1 10
  6 18 1 10
  6 19 1 10
  6 20 1 10
  6 21 1 10
  6 22 1 10
  6 23 1 10
  6 24 1 10
  6 25 1 10
  6 26 1 10
  6 27 1 10
  6 28 1 10
  6 29 1 10
  6 30 1 10
  6 31 1 10
  6 32 1 10
  6 33 1 10
  6 34 1 10
  6 35 1 10
  6 36 1 10
  6 37 1 10
  6 38 1 10
  6 39 1 10
  6 40 1 10
  6 41 1 10
  6 42 1 10
  6 43 1 10
  6 44 1 10
  6 45 1 10
  6 46 1 10
  6 47 1 10
  6 48 1 10
  6 49 1 10
  6 50 1 10
  6 51 1 10
  6 52 1 10
  6 53 1 10
  6 54 1 10
  6 55 1 10
  6 56 1 10
  6 57 1 10
  6 58 1 10
  6 59 1 10
  6 60 1 10
  6 61 1 10
  6 62 1 10
  6 63 1 10
  6 64 1 10
  6 65 1 10
  6 66 1 10
  6 67 1 10
  7 1 1 10
  7 2 1 10
  7 3 1 10
  7 4 1 10
  7 5 1 10
  7 6 1 10
  7 7 1 10
  7 8 1 10
  7 9 1 10
  7 10 1 10
  7 11 1 10
  7 12 1 10
  7 13 1 10
  7 14 1 10
  7 15 1 10
  7 16 1 10
  7 17 1 10
  7 18 1 10
  7 19 1 10
  7 20 1 10
  7 21 1 10
  7 22 1 10
  7 23 1 10
  7 24 1 10
  7 25 1 10
  7 26 1 10
  7 27 1 10
  7 28 1 10
  7 29 1 10
  7 30 1 10
  7 31 1 10
  7 32 1 10
  7 33 1 10
  7 34 1 10
  7 35 1 10
  7 36 1 10
  7 37 1 10
  7 38 1 10
  7 39 1 10
  7 40 1 10
  7 41 1 10
  7 42 1 10
  7 43 1 10
  7 44 1 10
  7 45 1 10
  7 46 1 10
  7 47 1 10
  7 48 1 10
  7 49 1 10
  7 50 1 10
  7 51 1 10
  7 52 1 10
  7 53 1 10
  7 54 1 10
  7 55 1 10
  7 56 1 10
  7 57 1 10
  7 58 1 10
  7 59 1 10
  7 60 1 10
  7 61 1 10
  7 62 1 10
  7 63 1 10
  7 64 1 10
  7 65 1 10
  7 66 1 10
  7 67 1 10
  8 1 1 10
  8 2 1 10
  8 3 1 10
  8 4 1 10
  8 5 1 10
  8 6 1 10
  8 7 1 10
  8 8 1 10
  8 9 1 10
  8 10 1 10
  8 11 1 10
  8 12 1 10
  8 13 1 10
  8 14 1 10
  8 15 1 10
  8 16 1 10
  8 17 1 10
  8 18 1 10
  8 19 1 10
  8 20 1 10
  8 21 1 10
  8 22 1 10
  8 23 1 10
  8 24 1 10
  8 25 1 10
  8 26 1 10
  8 27 1 10
  8 28 1 10
  8 29 1 10
  8 30 1 10
  8 31 1 10
  8 32 1 10
  8 33 1 10
  8 34 1 10
  8 35 1 10
  8 36 1 10
  8 37 1 10
  8 38 1 10
  8 39 1 10
  8 40 1 10
  8 41 1 10
  8 42 1 10
  8 43 1 10
  8 44 1 10
  8 45 1 10
  8 46 1 10
  8 47 1 10
  8 48 1 10
  8 49 1 10
  8 50 1 10
  8 51 1 10
  8 52 1 10
  8 53 1 10
  8 54 1 10
  8 55 1 10
  8 56 1 10
  8 57 1 10
  8 58 1 10
  8 59 1 10
  8 60 1 10
  8 61 1 10
  8 62 1 10
  8 63 1 10
  8 64 1 10
  8 65 1 10
  8 66 1 10
  8 67 1 10
  9 1 1 10
  9 2 1 10
  9 3 1 10
  9 4 1 10
  9 5 1 10
  9 6 1 10
  9 7 1 10
  9 8 1 10
  9 9 1 10
  9 10 1 10
  9 11 1 10
  9 12 1 10
  9 13 1 10
  9 14 1 10
  9 15 1 10
  9 16 1 10
  9 17 1 10
  9 18 1 10
  9 19 1 10
  9 20 1 10
  9 21 1 10
  9 22 1 10
  9 23 1 10
  9 24 1 10
  9 25 1 10
  9 26 1 10
  9 27 1 10
  9 28 1 10
  9 29 1 10
  9 30 1 10
  9 31 1 10
  9 32 1 10
  9 33 1 10
  9 34 1 10
  9 35 1 10
  9 36 1 10
  9 37 1 10
  9 38 1 10
  9 39 1 10
  9 40 1 10
  9 41 1 10
  9 42 1 10
  9 43 1 10
  9 44 1 10
  9 45 1 10
  9 46 1 10
  9 47 1 10
  9 48 1 10
  9 49 1 10
  9 50 1 10
  9 51 1 10
  9 52 1 10
  9 53 1 10
  9 54 1 10
  9 55 1 10
  9 56 1 10
  9 57 1 10
  9 58 1 10
  9 59 1 10
  9 60 1 10
  9 61 1 10
  9 62 1 10
  9 63 1 10
  9 64 1 10
  9 65 1 10
  9 66 1 10
  9 67 1 10
  10 1 1 10
  10 2 1 10
  10 3 1 10
  10 4 1 10
  10 5 1 10
  10 6 1 10
  10 7 1 10
  10 8 1 10
  10 9 1 10
  10 10 1 10
  10 11 1 10
  10 12 1 10
  10 13 1 10
  10 14 1 10
  10 15 1 10
  10 16 1 10
  10 17 1 10
  10 18 1 10
  10 19 1 10
  10 20 1 10
  10 21 1 10
  10 22 1 10
  10 23 1 10
  10 24 1 10
  10 25 1 10
  10 26 1 10
  10 27 1 10
  10 28 1 10
  10 29 1 10
  10 30 1 10
  10 31 1 10
  10 32 1 10
  10 33 1 10
  10 34 1 10
  10 35 1 10
  10 36 1 10
  10 37 1 10
  10 38 1 10
  10 39 1 10
  10 40 1 10
  10 41 1 10
  10 42 1 10
  10 43 1 10
  10 44 1 10
  10 45 1 10
  10 46 1 10
  10 47 1 10
  10 48 1 10
  10 49 1 10
  10 50 1 10
  10 51 1 10
  10 52 1 10
  10 53 1 10
  10 54 1 10
  10 55 1 10
  10 56 1 10
  10 57 1 10
  10 58 1 10
  10 59 1 10
  10 60 1 10
  10 61 1 10
  10 62 1 10
  10 63 1 10
  10 64 1 10
  10 65 1 10
  10 66 1 10
  10 67 1 10
  11 1 1 10
  11 2 1 10
  11 3 1 10
  11 4 1 10
  11 5 1 10
  11 6 1 10
  11 7 1 10
  11 8 1 10
  11 9 1 10
  11 10 1 10
  11 11 1 10
  11 12 1 10
  11 13 1 10
  11 14 1 10
  11 15 1 10
  11 16 1 10
  11 17 1 10
  11 18 1 10
  11 19 1 10
  11 20 1 10
  11 21 1 10
  11 22 1 10
  11 23 1 10
  11 24 1 10
  11 25 1 10
  11 26 1 10
  11 27 1 10
  11 28 1 10
  11 29 1 10
  11 30 1 10
  11 31 1 10
  11 32 1 10
  11 33 1 10
  11 34 1 10
  11 35 1 10
  11 36 1 10
  11 37 1 10
  11 38 1 10
  11 39 1 10
  11 40 1 10
  11 41 1 10
  11 42 1 10
  11 43 1 10
  11 44 1 10
  11 45 1 10
  11 46 1 10
  11 47 1 10
  11 48 1 10
  11 49 1 10
  11 50 1 10
  11 51 1 10
  11 52 1 10
  11 53 1 10
  11 54 1 10
  11 55 1 10
  11 56 1 10
  11 57 1 10
  11 58 1 10
  11 59 1 10
  11 60 1 10
  11 61 1 10
  11 62 1 10
  11 63 1 10
  11 64 1 10
  11 65 1 10
  11 66 1 10
  11 67 1 10
  12 1 1 10
  12 2 1 10
  12 3 1 10
  12 4 1 10
  12 5 1 10
  12 6 1 10
  12 7 1 10
  12 8 1 10
  12 9 1 10
  12 10 1 10
  12 11 1 10
  12 12 1 10
  12 13 1 10
  12 14 1 10
  12 15 1 10
  12 16 1 10
  12 17 1 10
  12 18 1 10
  12 19 1 10
  12 20 1 10
  12 21 1 10
  12 22 1 10
  12 23 1 10
  12 24 1 10
  12 25 1 10
  12 26 1 10
  12 27 1 10
  12 28 1 10
  12 29 1 10
  12 30 1 10
  12 31 1 10
  12 32 1 10
  12 33 1 10
  12 34 1 10
  12 35 1 10
  12 36 1 10
  12 37 1 10
  12 38 1 10
  12 39 1 10
  12 40 1 10
  12 41 1 10
  12 42 1 10
  12 43 1 10
  12 44 1 10
  12 45 1 10
  12 46 1 10
  12 47 1 10
  12 48 1 10
  12 49 1 10
  12 50 1 10
  12 51 1 10
  12 52 1 10
  12 53 1 10
  12 54 1 10
  12 55 1 10
  12 56 1 10
  12 57 1 10
  12 58 1 10
  12 59 1 10
  12 60 1 10
  12 61 1 10
  12 62 1 10
  12 63 1 10
  12 64 1 10
  12 65 1 10
  12 66 1 10
  12 67 1 10
  13 1 1 10
  13 2 1 10
  13 3 1 10
  13 4 1 10
  13 5 1 10
  13 6 1 10
  13 7 1 10
  13 8 1 10
  13 9 1 10
  13 10 1 10
  13 11 1 10
  13 12 1 10
  13 13 1 10
  13 14 1 10
  13 15 1 10
  13 16 1 10
  13 17 1 10
  13 18 1 10
  13 19 1 10
  13 20 1 10
  13 21 1 10
  13 22 1 10
  13 23 1 10
  13 24 1 10
  13 25 1 10
  13 26 1 10
  13 27 1 10
  13 28 1 10
  13 29 1 10
  13 30 1 10
  13 31 1 10
  13 32 1 10
  13 33 1 10
  13 34 1 10
  13 35 1 10
  13 36 1 10
  13 37 1 10
  13 38 1 10
  13 39 1 10
  13 40 1 10
  13 41 1 10
  13 42 1 10
  13 43 1 10
  13 44 1 10
  13 45 1 10
  13 46 1 10
  13 47 1 10
  13 48 1 10
  13 49 1 10
  13 50 1 10
  13 51 1 10
  13 52 1 10
  13 53 1 10
  13 54 1 10
  13 55 1 10
  13 56 1 10
  13 57 1 10
  13 58 1 10
  13 59 1 10
  13 60 1 10
  13 61 1 10
  13 62 1 10
  13 63 1 10
  13 64 1 10
  13 65 1 10
  13 66 1 10
  13 67 1 10
  14 1 1 10
  14 2 1 10
  14 3 1 10
  14 4 1 10
  14 5 1 10
  14 6 1 10
  14 7 1 10
  14 8 1 10
  14 9 1 10
  14 10 1 10
  14 11 1 10
  14 12 1 10
  14 13 1 10
  14 14 1 10
  14 15 1 10
  14 16 1 10
  14 17 1 10
  14 18 1 10
  14 19 1 10
  14 20 1 10
  14 21 1 10
  14 22 1 10
  14 23 1 10
  14 24 1 10
  14 25 1 10
  14 26 1 10
  14 27 1 10
  14 28 1 10
  14 29 1 10
  14 30 1 10
  14 31 1 10
  14 32 1 10
  14 33 1 10
  14 34 1 10
  14 35 1 10
  14 36 1 10
  14 37 1 10
  14 38 1 10
  14 39 1 10
  14 40 1 10
  14 41 1 10
  14 42 1 10
  14 43 1 10
  14 44 1 10
  14 45 1 10
  14 46 1 10
  14 47 1 10
  14 48 1 10
  14 49 1 10
  14 50 1 10
  14 51 1 10
  14 52 1 10
  14 53 1 10
  14 54 1 10
  14 55 1 10
  14 56 1 10
  14 57 1 10
  14 58 1 10
  14 59 1 10
  14 60 1 10
  14 61 1 10
  14 62 1 10
  14 63 1 10
  14 64 1 10
  14 65 1 10
  14 66 1 10
  14 67 1 10
  15 1 1 10
  15 2 1 10
  15 3 1 10
  15 4 1 10
  15 5 1 10
  15 6 1 10
  15 7 1 10
  15 8 1 10
  15 9 1 10
  15 10 1 10
  15 11 1 10
  15 12 1 10
  15 13 1 10
  15 14 1 10
  15 15 1 10
  15 16 1 10
  15 17 1 10
  15 18 1 10
  15 19 1 10
  15 20 1 10
  15 21 1 10
  15 22 1 10
  15 23 1 10
  15 24 1 10
  15 25 1 10
  15 26 1 10
  15 27 1 10
  15 28 1 10
  15 29 1 10
  15 30 1 10
  15 31 1 10
  15 32 1 10
  15 33 1 10
  15 34 1 10
  15 35 1 10
  15 36 1 10
  15 37 1 10
  15 38 1 10
  15 39 1 10
  15 40 1 10
  15 41 1 10
  15 42 1 10
  15 43 1 10
  15 44 1 10
  15 45 1 10
  15 46 1 10
  15 47 1 10
  15 48 1 10
  15 49 1 10
  15 50 1 10
  15 51 1 10
  15 52 1 10
  15 53 1 10
  15 54 1 10
  15 55 1 10
  15 56 1 10
  15 57 1 10
  15 58 1 10
  15 59 1 10
  15 60 1 10
  15 61 1 10
  15 62 1 10
  15 63 1 10
  15 64 1 10
  15 65 1 10
  15 66 1 10
  15 67 1 10
  16 1 1 10
  16 2 1 10
  16 3 1 10
  16 4 1 10
  16 5 1 10
  16 6 1 10
  16 7 1 10
  16 8 1 10
  16 9 1 10
  16 10 1 10
  16 11 1 10
  16 12 1 10
  16 13 1 10
  16 14 1 10
  16 15 1 10
  16 16 1 10
  16 17 1 10
  16 18 1 10
  16 19 1 10
  16 20 1 10
  16 21 1 10
  16 22 1 10
  16 23 1 10
  16 24 1 10
  16 25 1 10
  16 26 1 10
  16 27 1 10
  16 28 1 10
  16 29 1 10
  16 30 1 10
  16 31 1 10
  16 32 1 10
  16 33 1 10
  16 34 1 10
  16 35 1 10
  16 36 1 10
  16 37 1 10
  16 38 1 10
  16 39 1 10
  16 40 1 10
  16 41 1 10
  16 42 1 10
  16 43 1 10
  16 44 1 10
  16 45 1 10
  16 46 1 10
  16 47 1 10
  16 48 1 10
  16 49 1 10
  16 50 1 10
  16 51 1 10
  16 52 1 10
  16 53 1 10
  16 54 1 10
  16 55 1 10
  16 56 1 10
  16 57 1 10
  16 58 1 10
  16 59 1 10
  16 60 1 10
  16 61 1 10
  16 62 1 10
  16 63 1 10
  16 64 1 10
  16 65 1 10
  16 66 1 10
  16 67 1 10
  17 1 1 10
  17 2 1 10
  17 3 1 10
  17 4 1 10
  17 5 1 10
  17 6 1 10
  17 7 1 10
  17 8 1 10
  17 9 1 10
  17 10 1 10
  17 11 1 10
  17 12 1 10
  17 13 1 10
  17 14 1 10
  17 15 1 10
  17 16 1 10
  17 17 1 10
  17 18 1 10
  17 19 1 10
  17 20 1 10
  17 21 1 10
  17 22 1 10
  17 23 1 10
  17 24 1 10
  17 25 1 10
  17 26 1 10
  17 27 1 10
  17 28 1 10
  17 29 1 10
  17 30 1 10
  17 31 1 10
  17 32 1 10
  17 33 1 10
  17 34 1 10
  17 35 1 10
  17 36 1 10
  17 37 1 10
  17 38 1 10
  17 39 1 10
  17 40 1 10
  17 41 1 10
  17 42 1 10
  17 43 1 10
  17 44 1 10
  17 45 1 10
  17 46 1 10
  17 47 1 10
  17 48 1 10
  17 49 1 10
  17 50 1 10
  17 51 1 10
  17 52 1 10
  17 53 1 10
  17 54 1 10
  17 55 1 10
  17 56 1 10
  17 57 1 10
  17 58 1 10
  17 59 1 10
  17 60 1 10
  17 61 1 10
  17 62 1 10
  17 63 1 10
  17 64 1 10
  17 65 1 10
  17 66 1 10
  17 67 1 10
  18 1 1 10
  18 2 1 10
  18 3 1 10
  18 4 1 10
  18 5 1 10
  18 6 1 10
  18 7 1 10
  18 8 1 10
  18 9 1 10
  18 10 1 10
  18 11 1 10
  18 12 1 10
  18 13 1 10
  18 14 1 10
  18 15 1 10
  18 16 1 10
  18 17 1 10
  18 18 1 10
  18 19 1 10
  18 20 1 10
  18 21 1 10
  18 22 1 10
  18 23 1 10
  18 24 1 10
  18 25 1 10
  18 26 1 10
  18 27 1 10
  18 28 1 10
  18 29 1 10
  18 30 1 10
  18 31 1 10
  18 32 1 10
  18 33 1 10
  18 34 1 10
  18 35 1 10
  18 36 1 10
  18 37 1 10
  18 38 1 10
  18 39 1 10
  18 40 1 10
  18 41 1 10
  18 42 1 10
  18 43 1 10
  18 44 1 10
  18 45 1 10
  18 46 1 10
  18 47 1 10
  18 48 1 10
  18 49 1 10
  18 50 1 10
  18 51 1 10
  18 52 1 10
  18 53 1 10
  18 54 1 10
  18 55 1 10
  18 56 1 10
  18 57 1 10
  18 58 1 10
  18 59 1 10
  18 60 1 10
  18 61 1 10
  18 62 1 10
  18 63 1 10
  18 64 1 10
  18 65 1 10
  18 66 1 10
  18 67 1 10
  19 1 1 10
  19 2 1 10
  19 3 1 10
  19 4 1 10
  19 5 1 10
  19 6 1 10
  19 7 1 10
  19 8 1 10
  19 9 1 10
  19 10 1 10
  19 11 1 10
  19 12 1 10
  19 13 1 10
  19 14 1 10
  19 15 1 10
  19 16 1 10
  19 17 1 10
  19 18 1 10
  19 19 1 10
  19 20 1 10
  19 21 1 10
  19 22 1 10
  19 23 1 10
  19 24 1 10
  19 25 1 10
  19 26 1 10
  19 27 1 10
  19 28 1 10
  19 29 1 10
  19 30 1 10
  19 31 1 10
  19 32 1 10
  19 33 1 10
  19 34 1 10
  19 35 1 10
  19 36 1 10
  19 37 1 10
  19 38 1 10
  19 39 1 10
  19 40 1 10
  19 41 1 10
  19 42 1 10
  19 43 1 10
  19 44 1 10
  19 45 1 10
  19 46 1 10
  19 47 1 10
  19 48 1 10
  19 49 1 10
  19 50 1 10
  19 51 1 10
  19 52 1 10
  19 53 1 10
  19 54 1 10
  19 55 1 10
  19 56 1 10
  19 57 1 10
  19 58 1 10
  19 59 1 10
  19 60 1 10
  19 61 1 10
  19 62 1 10
  19 63 1 10
  19 64 1 10
  19 65 1 10
  19 66 1 10
  19 67 1 10
  20 1 1 10
  20 2 1 10
  20 3 1 10
  20 4 1 10
  20 5 1 10
  20 6 1 10
  20 7 1 10
  20 8 1 10
  20 9 1 10
  20 10 1 10
  20 11 1 10
  20 12 1 10
  20 13 1 10
  20 14 1 10
  20 15 1 10
  20 16 1 10
  20 17 1 10
  20 18 1 10
  20 19 1 10
  20 20 1 10
  20 21 1 10
  20 22 1 10
  20 23 1 10
  20 24 1 10
  20 25 1 10
  20 26 1 10
  20 27 1 10
  20 28 1 10
  20 29 1 10
  20 30 1 10
  20 31 1 10
  20 32 1 10
  20 33 1 10
  20 34 1 10
  20 35 1 10
  20 36 1 10
  20 37 1 10
  20 38 1 10
  20 39 1 10
  20 40 1 10
  20 41 1 10
  20 42 1 10
  20 43 1 10
  20 44 1 10
  20 45 1 10
  20 46 1 10
  20 47 1 10
  20 48 1 10
  20 49 1 10
  20 50 1 10
  20 51 1 10
  20 52 1 10
  20 53 1 10
  20 54 1 10
  20 55 1 10
  20 56 1 10
  20 57 1 10
  20 58 1 10
  20 59 1 10
  20 60 1 10
  20 61 1 10
  20 62 1 10
  20 63 1 10
  20 64 1 10
  20 65 1 10
  20 66 1 10
  20 67 1 10
  21 1 1 10
  21 2 1 10
  21 3 1 10
  21 4 1 10
  21 5 1 10
  21 6 1 10
  21 7 1 10
  21 8 1 10
  21 9 1 10
  21 10 1 10
  21 11 1 10
  21 12 1 10
  21 13 1 10
  21 14 1 10
  21 15 1 10
  21 16 1 10
  21 17 1 10
  21 18 1 10
  21 19 1 10
  21 20 1 10
  21 21 1 10
  21 22 1 10
  21 23 1 10
  21 24 1 10
  21 25 1 10
  21 26 1 10
  21 27 1 10
  21 28 1 10
  21 29 1 10
  21 30 1 10
  21 31 1 10
  21 32 1 10
  21 33 1 10
  21 34 1 10
  21 35 1 10
  21 36 1 10
  21 37 1 10
  21 38 1 10
  21 39 1 10
  21 40 1 10
  21 41 1 10
  21 42 1 10
  21 43 1 10
  21 44 1 10
  21 45 1 10
  21 46 1 10
  21 47 1 10
  21 48 1 10
  21 49 1 10
  21 50 1 10
  21 51 1 10
  21 52 1 10
  21 53 1 10
  21 54 1 10
  21 55 1 10
  21 56 1 10
  21 57 1 10
  21 58 1 10
  21 59 1 10
  21 60 1 10
  21 61 1 10
  21 62 1 10
  21 63 1 10
  21 64 1 10
  21 65 1 10
  21 66 1 10
  21 67 1 10
  22 1 1 10
  22 2 1 10
  22 3 1 10
  22 4 1 10
  22 5 1 10
  22 6 1 10
  22 7 1 10
  22 8 1 10
  22 9 1 10
  22 10 1 10
  22 11 1 10
  22 12 1 10
  22 13 1 10
  22 14 1 10
  22 15 1 10
  22 16 1 10
  22 17 1 10
  22 18 1 10
  22 19 1 10
  22 20 1 10
  22 21 1 10
  22 22 1 10
  22 23 1 10
  22 24 1 10
  22 25 1 10
  22 26 1 10
  22 27 1 10
  22 28 1 10
  22 29 1 10
  22 30 1 10
  22 31 1 10
  22 32 1 10
  22 33 1 10
  22 34 1 10
  22 35 1 10
  22 36 1 10
  22 37 1 10
  22 38 1 10
  22 39 1 10
  22 40 1 10
  22 41 1 10
  22 42 1 10
  22 43 1 10
  22 44 1 10
  22 45 1 10
  22 46 1 10
  22 47 1 10
  22 48 1 10
  22 49 1 10
  22 50 1 10
  22 51 1 10
  22 52 1 10
  22 53 1 10
  22 54 1 10
  22 55 1 10
  22 56 1 10
  22 57 1 10
  22 58 1 10
  22 59 1 10
  22 60 1 10
  22 61 1 10
  22 62 1 10
  22 63 1 10
  22 64 1 10
  22 65 1 10
  22 66 1 10
  22 67 1 10
  23 1 1 10
  23 2 1 10
  23 3 1 10
  23 4 1 10
  23 5 1 10
  23 6 1 10
  23 7 1 10
  23 8 1 10
  23 9 1 10
  23 10 1 10
  23 11 1 10
  23 12 1 10
  23 13 1 10
  23 14 1 10
  23 15 1 10
  23 16 1 10
  23 17 1 10
  23 18 1 10
  23 19 1 10
  23 20 1 10
  23 21 1 10
  23 22 1 10
  23 23 1 10
  23 24 1 10
  23 25 1 10
  23 26 1 10
  23 27 1 10
  23 28 1 10
  23 29 1 10
  23 30 1 10
  23 31 1 10
  23 32 1 10
  23 33 1 10
  23 34 1 10
  23 35 1 10
  23 36 1 10
  23 37 1 10
  23 38 1 10
  23 39 1 10
  23 40 1 10
  23 41 1 10
  23 42 1 10
  23 43 1 10
  23 44 1 10
  23 45 1 10
  23 46 1 10
  23 47 1 10
  23 48 1 10
  23 49 1 10
  23 50 1 10
  23 51 1 10
  23 52 1 10
  23 53 1 10
  23 54 1 10
  23 55 1 10
  23 56 1 10
  23 57 1 10
  23 58 1 10
  23 59 1 10
  23 60 1 10
  23 61 1 10
  23 62 1 10
  23 63 1 10
  23 64 1 10
  23 65 1 10
  23 66 1 10
  23 67 1 10
  24 1 1 10
  24 2 1 10
  24 3 1 10
  24 4 1 10
  24 5 1 10
  24 6 1 10
  24 7 1 10
  24 8 1 10
  24 9 1 10
  24 10 1 10
  24 11 1 10
  24 12 1 10
  24 13 1 10
  24 14 1 10
  24 15 1 10
  24 16 1 10
  24 17 1 10
  24 18 1 10
  24 19 1 10
  24 20 1 10
  24 21 1 10
  24 22 1 10
  24 23 1 10
  24 24 1 10
  24 25 1 10
  24 26 1 10
  24 27 1 10
  24 28 1 10
  24 29 1 10
  24 30 1 10
  24 31 1 10
  24 32 1 10
  24 33 1 10
  24 34 1 10
  24 35 1 10
  24 36 1 10
  24 37 1 10
  24 38 1 10
  24 39 1 10
  24 40 1 10
  24 41 1 10
  24 42 1 10
  24 43 1 10
  24 44 1 10
  24 45 1 10
  24 46 1 10
  24 47 1 10
  24 48 1 10
  24 49 1 10
  24 50 1 10
  24 51 1 10
  24 52 1 10
  24 53 1 10
  24 54 1 10
  24 55 1 10
  24 56 1 10
  24 57 1 10
  24 58 1 10
  24 59 1 10
  24 60 1 10
  24 61 1 10
  24 62 1 10
  24 63 1 10
  24 64 1 10
  24 65 1 10
  24 66 1 10
  24 67 1 10
  25 1 1 10
  25 2 1 10
  25 3 1 10
  25 4 1 10
  25 5 1 10
  25 6 1 10
  25 7 1 10
  25 8 1 10
  25 9 1 10
  25 10 1 10
  25 11 1 10
  25 12 1 10
  25 13 1 10
  25 14 1 10
  25 15 1 10
  25 16 1 10
  25 17 1 10
  25 18 1 10
  25 19 1 10
  25 20 1 10
  25 21 1 10
  25 22 1 10
  25 23 1 10
  25 24 1 10
  25 25 1 10
  25 26 1 10
  25 27 1 10
  25 28 1 10
  25 29 1 10
  25 30 1 10
  25 31 1 10
  25 32 1 10
  25 33 1 10
  25 34 1 10
  25 35 1 10
  25 36 1 10
  25 37 1 10
  25 38 1 10
  25 39 1 10
  25 40 1 10
  25 41 1 10
  25 42 1 10
  25 43 1 10
  25 44 1 10
  25 45 1 10
  25 46 1 10
  25 47 1 10
  25 48 1 10
  25 49 1 10
  25 50 1 10
  25 51 1 10
  25 52 1 10
  25 53 1 10
  25 54 1 10
  25 55 1 10
  25 56 1 10
  25 57 1 10
  25 58 1 10
  25 59 1 10
  25 60 1 10
  25 61 1 10
  25 62 1 10
  25 63 1 10
  25 64 1 10
  25 65 1 10
  25 66 1 10
  25 67 1 10
  26 1 1 10
  26 2 1 10
  26 3 1 10
  26 4 1 10
  26 5 1 10
  26 6 1 10
  26 7 1 10
  26 8 1 10
  26 9 1 10
  26 10 1 10
  26 11 1 10
  26 12 1 10
  26 13 1 10
  26 14 1 10
  26 15 1 10
  26 16 1 10
  26 17 1 10
  26 18 1 10
  26 19 1 10
  26 20 1 10
  26 21 1 10
  26 22 1 10
  26 23 1 10
  26 24 1 10
  26 25 1 10
  26 26 1 10
  26 27 1 10
  26 28 1 10
  26 29 1 10
  26 30 1 10
  26 31 1 10
  26 32 1 10
  26 33 1 10
  26 34 1 10
  26 35 1 10
  26 36 1 10
  26 37 1 10
  26 38 1 10
  26 39 1 10
  26 40 1 10
  26 41 1 10
  26 42 1 10
  26 43 1 10
  26 44 1 10
  26 45 1 10
  26 46 1 10
  26 47 1 10
  26 48 1 10
  26 49 1 10
  26 50 1 10
  26 51 1 10
  26 52 1 10
  26 53 1 10
  26 54 1 10
  26 55 1 10
  26 56 1 10
  26 57 1 10
  26 58 1 10
  26 59 1 10
  26 60 1 10
  26 61 1 10
  26 62 1 10
  26 63 1 10
  26 64 1 10
  26 65 1 10
  26 66 1 10
  26 67 1 10
  27 1 1 10
  27 2 1 10
  27 3 1 10
  27 4 1 10
  27 5 1 10
  27 6 1 10
  27 7 1 10
  27 8 1 10
  27 9 1 10
  27 10 1 10
  27 11 1 10
  27 12 1 10
  27 13 1 10
  27 14 1 10
  27 15 1 10
  27 16 1 10
  27 17 1 10
  27 18 1 10
  27 19 1 10
  27 20 1 10
  27 21 1 10
  27 22 1 10
  27 23 1 10
  27 24 1 10
  27 25 1 10
  27 26 1 10
  27 27 1 10
  27 28 1 10
  27 29 1 10
  27 30 1 10
  27 31 1 10
  27 32 1 10
  27 33 1 10
  27 34 1 10
  27 35 1 10
  27 36 1 10
  27 37 1 10
  27 38 1 10
  27 39 1 10
  27 40 1 10
  27 41 1 10
  27 42 1 10
  27 43 1 10
  27 44 1 10
  27 45 1 10
  27 46 1 10
  27 47 1 10
  27 48 1 10
  27 49 1 10
  27 50 1 10
  27 51 1 10
  27 52 1 10
  27 53 1 10
  27 54 1 10
  27 55 1 10
  27 56 1 10
  27 57 1 10
  27 58 1 10
  27 59 1 10
  27 60 1 10
  27 61 1 10
  27 62 1 10
  27 63 1 10
  27 64 1 10
  27 65 1 10
  27 66 1 10
  27 67 1 10
  28 1 1 10
  28 2 1 10
  28 3 1 10
  28 4 1 10
  28 5 1 10
  28 6 1 10
  28 7 1 10
  28 8 1 10
  28 9 1 10
  28 10 1 10
  28 11 1 10
  28 12 1 10
  28 13 1 10
  28 14 1 10
  28 15 1 10
  28 16 1 10
  28 17 1 10
  28 18 1 10
  28 19 1 10
  28 20 1 10
  28 21 1 10
  28 22 1 10
  28 23 1 10
  28 24 1 10
  28 25 1 10
  28 26 1 10
  28 27 1 10
  28 28 1 10
  28 29 1 10
  28 30 1 10
  28 31 1 10
  28 32 1 10
  28 33 1 10
  28 34 1 10
  28 35 1 10
  28 36 1 10
  28 37 1 10
  28 38 1 10
  28 39 1 10
  28 40 1 10
  28 41 1 10
  28 42 1 10
  28 43 1 10
  28 44 1 10
  28 45 1 10
  28 46 1 10
  28 47 1 10
  28 48 1 10
  28 49 1 10
  28 50 1 10
  28 51 1 10
  28 52 1 10
  28 53 1 10
  28 54 1 10
  28 55 1 10
  28 56 1 10
  28 57 1 10
  28 58 1 10
  28 59 1 10
  28 60 1 10
  28 61 1 10
  28 62 1 10
  28 63 1 10
  28 64 1 10
  28 65 1 10
  28 66 1 10
  28 67 1 10
  29 1 1 10
  29 2 1 10
  29 3 1 10
  29 4 1 10
  29 5 1 10
  29 6 1 10
  29 7 1 10
  29 8 1 10
  29 9 1 10
  29 10 1 10
  29 11 1 10
  29 12 1 10
  29 13 1 10
  29 14 1 10
  29 15 1 10
  29 16 1 10
  29 17 1 10
  29 18 1 10
  29 19 1 10
  29 20 1 10
  29 21 1 10
  29 22 1 10
  29 23 1 10
  29 24 1 10
  29 25 1 10
  29 26 1 10
  29 27 1 10
  29 28 1 10
  29 29 1 10
  29 30 1 10
  29 31 1 10
  29 32 1 10
  29 33 1 10
  29 34 1 10
  29 35 1 10
  29 36 1 10
  29 37 1 10
  29 38 1 10
  29 39 1 10
  29 40 1 10
  29 41 1 10
  29 42 1 10
  29 43 1 10
  29 44 1 10
  29 45 1 10
  29 46 1 10
  29 47 1 10
  29 48 1 10
  29 49 1 10
  29 50 1 10
  29 51 1 10
  29 52 1 10
  29 53 1 10
  29 54 1 10
  29 55 1 10
  29 56 1 10
  29 57 1 10
  29 58 1 10
  29 59 1 10
  29 60 1 10
  29 61 1 10
  29 62 1 10
  29 63 1 10
  29 64 1 10
  29 65 1 10
  29 66 1 10
  29 67 1 10
  30 1 1 10
  30 2 1 10
  30 3 1 10
  30 4 1 10
  30 5 1 10
  30 6 1 10
  30 7 1 10
  30 8 1 10
  30 9 1 10
  30 10 1 10
  30 11 1 10
  30 12 1 10
  30 13 1 10
  30 14 1 10
  30 15 1 10
  30 16 1 10
  30 17 1 10
  30 18 1 10
  30 19 1 10
  30 20 1 10
  30 21 1 10
  30 22 1 10
  30 23 1 10
  30 24 1 10
  30 25 1 10
  30 26 1 10
  30 27 1 10
  30 28 1 10
  30 29 1 10
  30 30 1 10
  30 31 1 10
  30 32 1 10
  30 33 1 10
  30 34 1 10
  30 35 1 10
  30 36 1 10
  30 37 1 10
  30 38 1 10
  30 39 1 10
  30 40 1 10
  30 41 1 10
  30 42 1 10
  30 43 1 10
  30 44 1 10
  30 45 1 10
  30 46 1 10
  30 47 1 10
  30 48 1 10
  30 49 1 10
  30 50 1 10
  30 51 1 10
  30 52 1 10
  30 53 1 10
  30 54 1 10
  30 55 1 10
  30 56 1 10
  30 57 1 10
  30 58 1 10
  30 59 1 10
  30 60 1 10
  30 61 1 10
  30 62 1 10
  30 63 1 10
  30 64 1 10
  30 65 1 10
  30 66 1 10
  30 67 1 10
  31 1 1 10
  31 2 1 10
  31 3 1 10
  31 4 1 10
  31 5 1 10
  31 6 1 10
  31 7 1 10
  31 8 1 10
  31 9 1 10
  31 10 1 10
  31 11 1 10
  31 12 1 10
  31 13 1 10
  31 14 1 10
  31 15 1 10
  31 16 1 10
  31 17 1 10
  31 18 1 10
  31 19 1 10
  31 20 1 10
  31 21 1 10
  31 22 1 10
  31 23 1 10
  31 24 1 10
  31 25 1 10
  31 26 1 10
  31 27 1 10
  31 28 1 10
  31 29 1 10
  31 30 1 10
  31 31 1 10
  31 32 1 10
  31 33 1 10
  31 34 1 10
  31 35 1 10
  31 36 1 10
  31 37 1 10
  31 38 1 10
  31 39 1 10
  31 40 1 10
  31 41 1 10
  31 42 1 10
  31 43 1 10
  31 44 1 10
  31 45 1 10
  31 46 1 10
  31 47 1 10
  31 48 1 10
  31 49 1 10
  31 50 1 10
  31 51 1 10
  31 52 1 10
  31 53 1 10
  31 54 1 10
  31 55 1 10
  31 56 1 10
  31 57 1 10
  31 58 1 10
  31 59 1 10
  31 60 1 10
  31 61 1 10
  31 62 1 10
  31 63 1 10
  31 64 1 10
  31 65 1 10
  31 66 1 10
  31 67 1 10
  32 1 1 10
  32 2 1 10
  32 3 1 10
  32 4 1 10
  32 5 1 10
  32 6 1 10
  32 7 1 10
  32 8 1 10
  32 9 1 10
  32 10 1 10
  32 11 1 10
  32 12 1 10
  32 13 1 10
  32 14 1 10
  32 15 1 10
  32 16 1 10
  32 17 1 10
  32 18 1 10
  32 19 1 10
  32 20 1 10
  32 21 1 10
  32 22 1 10
  32 23 1 10
  32 24 1 10
  32 25 1 10
  32 26 1 10
  32 27 1 10
  32 28 1 10
  32 29 1 10
  32 30 1 10
  32 31 1 10
  32 32 1 10
  32 33 1 10
  32 34 1 10
  32 35 1 10
  32 36 1 10
  32 37 1 10
  32 38 1 10
  32 39 1 10
  32 40 1 10
  32 41 1 10
  32 42 1 10
  32 43 1 10
  32 44 1 10
  32 45 1 10
  32 46 1 10
  32 47 1 10
  32 48 1 10
  32 49 1 10
  32 50 1 10
  32 51 1 10
  32 52 1 10
  32 53 1 10
  32 54 1 10
  32 55 1 10
  32 56 1 10
  32 57 1 10
  32 58 1 10
  32 59 1 10
  32 60 1 10
  32 61 1 10
  32 62 1 10
  32 63 1 10
  32 64 1 10
  32 65 1 10
  32 66 1 10
  32 67 1 10
  33 1 1 10
  33 2 1 10
  33 3 1 10
  33 4 1 10
  33 5 1 10
  33 6 1 10
  33 7 1 10
  33 8 1 10
  33 9 1 10
  33 10 1 10
  33 11 1 10
  33 12 1 10
  33 13 1 10
  33 14 1 10
  33 15 1 10
  33 16 1 10
  33 17 1 10
  33 18 1 10
  33 19 1 10
  33 20 1 10
  33 21 1 10
  33 22 1 10
  33 23 1 10
  33 24 1 10
  33 25 1 10
  33 26 1 10
  33 27 1 10
  33 28 1 10
  33 29 1 10
  33 30 1 10
  33 31 1 10
  33 32 1 10
  33 33 1 10
  33 34 1 10
  33 35 1 10
  33 36 1 10
  33 37 1 10
  33 38 1 10
  33 39 1 10
  33 40 1 10
  33 41 1 10
  33 42 1 10
  33 43 1 10
  33 44 1 10
  33 45 1 10
  33 46 1 10
  33 47 1 10
  33 48 1 10
  33 49 1 10
  33 50 1 10
  33 51 1 10
  33 52 1 10
  33 53 1 10
  33 54 1 10
  33 55 1 10
  33 56 1 10
  33 57 1 10
  33 58 1 10
  33 59 1 10
  33 60 1 10
  33 61 1 10
  33 62 1 10
  33 63 1 10
  33 64 1 10
  33 65 1 10
  33 66 1 10
  33 67 1 10
  34 1 1 10
  34 2 1 10
  34 3 1 10
  34 4 1 10
  34 5 1 10
  34 6 1 10
  34 7 1 10
  34 8 1 10
  34 9 1 10
  34 10 1 10
  34 11 1 10
  34 12 1 10
  34 13 1 10
  34 14 1 10
  34 15 1 10
  34 16 1 10
  34 17 1 10
  34 18 1 10
  34 19 1 10
  34 20 1 10
  34 21 1 10
  34 22 1 10
  34 23 1 10
  34 24 1 10
  34 25 1 10
  34 26 1 10
  34 27 1 10
  34 28 1 10
  34 29 1 10
  34 30 1 10
  34 31 1 10
  34 32 1 10
  34 33 1 10
  34 34 1 10
  34 35 1 10
  34 36 1 10
  34 37 1 10
  34 38 1 10
  34 39 1 10
  34 40 1 10
  34 41 1 10
  34 42 1 10
  34 43 1 10
  34 44 1 10
  34 45 1 10
  34 46 1 10
  34 47 1 10
  34 48 1 10
  34 49 1 10
  34 50 1 10
  34 51 1 10
  34 52 1 10
  34 53 1 10
  34 54 1 10
  34 55 1 10
  34 56 1 10
  34 57 1 10
  34 58 1 10
  34 59 1 10
  34 60 1 10
  34 61 1 10
  34 62 1 10
  34 63 1 10
  34 64 1 10
  34 65 1 10
  34 66 1 10
  34 67 1 10
  35 1 1 10
  35 2 1 10
  35 3 1 10
  35 4 1 10
  35 5 1 10
  35 6 1 10
  35 7 1 10
  35 8 1 10
  35 9 1 10
  35 10 1 10
  35 11 1 10
  35 12 1 10
  35 13 1 10
  35 14 1 10
  35 15 1 10
  35 16 1 10
  35 17 1 10
  35 18 1 10
  35 19 1 10
  35 20 1 10
  35 21 1 10
  35 22 1 10
  35 23 1 10
  35 24 1 10
  35 25 1 10
  35 26 1 10
  35 27 1 10
  35 28 1 10
  35 29 1 10
  35 30 1 10
  35 31 1 10
  35 32 1 10
  35 33 1 10
  35 34 1 10
  35 35 1 10
  35 36 1 10
  35 37 1 10
  35 38 1 10
  35 39 1 10
  35 40 1 10
  35 41 1 10
  35 42 1 10
  35 43 1 10
  35 44 1 10
  35 45 1 10
  35 46 1 10
  35 47 1 10
  35 48 1 10
  35 49 1 10
  35 50 1 10
  35 51 1 10
  35 52 1 10
  35 53 1 10
  35 54 1 10
  35 55 1 10
  35 56 1 10
  35 57 1 10
  35 58 1 10
  35 59 1 10
  35 60 1 10
  35 61 1 10
  35 62 1 10
  35 63 1 10
  35 64 1 10
  35 65 1 10
  35 66 1 10
  35 67 1 10
  36 1 1 10
  36 2 1 10
  36 3 1 10
  36 4 1 10
  36 5 1 10
  36 6 1 10
  36 7 1 10
  36 8 1 10
  36 9 1 10
  36 10 1 10
  36 11 1 10
  36 12 1 10
  36 13 1 10
  36 14 1 10
  36 15 1 10
  36 16 1 10
  36 17 1 10
  36 18 1 10
  36 19 1 10
  36 20 1 10
  36 21 1 10
  36 22 1 10
  36 23 1 10
  36 24 1 10
  36 25 1 10
  36 26 1 10
  36 27 1 10
  36 28 1 10
  36 29 1 10
  36 30 1 10
  36 31 1 10
  36 32 1 10
  36 33 1 10
  36 34 1 10
  36 35 1 10
  36 36 1 10
  36 37 1 10
  36 38 1 10
  36 39 1 10
  36 40 1 10
  36 41 1 10
  36 42 1 10
  36 43 1 10
  36 44 1 10
  36 45 1 10
  36 46 1 10
  36 47 1 10
  36 48 1 10
  36 49 1 10
  36 50 1 10
  36 51 1 10
  36 52 1 10
  36 53 1 10
  36 54 1 10
  36 55 1 10
  36 56 1 10
  36 57 1 10
  36 58 1 10
  36 59 1 10
  36 60 1 10
  36 61 1 10
  36 62 1 10
  36 63 1 10
  36 64 1 10
  36 65 1 10
  36 66 1 10
  36 67 1 10
  37 1 1 10
  37 2 1 10
  37 3 1 10
  37 4 1 10
  37 5 1 10
  37 6 1 10
  37 7 1 10
  37 8 1 10
  37 9 1 10
  37 10 1 10
  37 11 1 10
  37 12 1 10
  37 13 1 10
  37 14 1 10
  37 15 1 10
  37 16 1 10
  37 17 1 10
  37 18 1 10
  37 19 1 10
  37 20 1 10
  37 21 1 10
  37 22 1 10
  37 23 1 10
  37 24 1 10
  37 25 1 10
  37 26 1 10
  37 27 1 10
  37 28 1 10
  37 29 1 10
  37 30 1 10
  37 31 1 10
  37 32 1 10
  37 33 1 10
  37 34 1 10
  37 35 1 10
  37 36 1 10
  37 37 1 10
  37 38 1 10
  37 39 1 10
  37 40 1 10
  37 41 1 10
  37 42 1 10
  37 43 1 10
  37 44 1 10
  37 45 1 10
  37 46 1 10
  37 47 1 10
  37 48 1 10
  37 49 1 10
  37 50 1 10
  37 51 1 10
  37 52 1 10
  37 53 1 10
  37 54 1 10
  37 55 1 10
  37 56 1 10
  37 57 1 10
  37 58 1 10
  37 59 1 10
  37 60 1 10
  37 61 1 10
  37 62 1 10
  37 63 1 10
  37 64 1 10
  37 65 1 10
  37 66 1 10
  37 67 1 10
  38 1 1 10
  38 2 1 10
  38 3 1 10
  38 4 1 10
  38 5 1 10
  38 6 1 10
  38 7 1 10
  38 8 1 10
  38 9 1 10
  38 10 1 10