# File generated by Flopy version 3.8.2 on 01/15/2025 at 14:15:57.
BEGIN options
  SAVE_FLOWS
END options

BEGIN dimensions
  MAXBOUND  2100
END dimensions

BEGIN period  1
  1 1 1 100
  1 2 1 100
  1 3 1 100
  1 4 1 100
  1 5 1 100
  1 6 1 100
  1 7 1 100
  1 8 1 100
  1 9 1 100
  1 10 1 100
  1 11 1 100
  1 12 1 100
  1 13 1 100
  1 14 1 100
  1 15 1 100
  1 16 1 100
  1 17 1 100
  1 18 1 100
  1 19 1 100
  1 20 1 100
  1 21 1 100
  1 22 1 100
  1 23 1 100
  1 24 1 100
  1 25 1 100
  1 26 1 100
  1 27 1 100
  1 28 1 100
  1 29 1 100
  1 30 1 100
  1 31 1 100
  1 32 1 100
  1 33 1 100
  1 34 1 100
  1 35 1 100
  2 1 1 100
  2 2 1 100
  2 3 1 100
  2 4 1 100
  2 5 1 100
  2 6 1 100
  2 7 1 100
  2 8 1 100
  2 9 1 100
  2 10 1 100
  2 11 1 100
  2 12 1 100
  2 13 1 100
  2 14 1 100
  2 15 1 100
  2 16 1 100
  2 17 1 100
  2 18 1 100
  2 19 1 100
  2 20 1 100
  2 21 1 100
  2 22 1 100
  2 23 1 100
  2 24 1 100
  2 25 1 100
  2 26 1 100
  2 27 1 100
  2 28 1 100
  2 29 1 100
  2 30 1 100
  2 31 1 100
  2 32 1 100
  2 33 1 100
  2 34 1 100
  2 35 1 100
  3 1 1 100
  3 2 1 100
  3 3 1 100
  3 4 1 100
  3 5 1 100
  3 6 1 100
  3 7 1 100
  3 8 1 100
  3 9 1 100
  3 10 1 100
  3 11 1 100
  3 12 1 100
  3 13 1 100
  3 14 1 100
  3 15 1 100
  3 16 1 100
  3 17 1 100
  3 18 1 100
  3 19 1 100
  3 20 1 100
  3 21 1 100
  3 22 1 100
  3 23 1 100
  3 24 1 100
  3 25 1 100
  3 26 1 100
  3 27 1 100
  3 28 1 100
  3 29 1 100
  3 30 1 100
  3 31 1 100
  3 32 1 100
  3 33 1 100
  3 34 1 100
  3 35 1 100
  4 1 1 100
  4 2 1 100
  4 3 1 100
  4 4 1 100
  4 5 1 100
  4 6 1 100
  4 7 1 100
  4 8 1 100
  4 9 1 100
  4 10 1 100
  4 11 1 100
  4 12 1 100
  4 13 1 100
  4 14 1 100
  4 15 1 100
  4 16 1 100
  4 17 1 100
  4 18 1 100
  4 19 1 100
  4 20 1 100
  4 21 1 100
  4 22 1 100
  4 23 1 100
  4 24 1 100
  4 25 1 100
  4 26 1 100
  4 27 1 100
  4 28 1 100
  4 29 1 100
  4 30 1 100
  4 31 1 100
  4 32 1 100
  4 33 1 100
  4 34 1 100
  4 35 1 100
  5 1 1 100
  5 2 1 100
  5 3 1 100
  5 4 1 100
  5 5 1 100
  5 6 1 100
  5 7 1 100
  5 8 1 100
  5 9 1 100
  5 10 1 100
  5 11 1 100
  5 12 1 100
  5 13 1 100
  5 14 1 100
  5 15 1 100
  5 16 1 100
  5 17 1 100
  5 18 1 100
  5 19 1 100
  5 20 1 100
  5 21 1 100
  5 22 1 100
  5 23 1 100
  5 24 1 100
  5 25 1 100
  5 26 1 100
  5 27 1 100
  5 28 1 100
  5 29 1 100
  5 30 1 100
  5 31 1 100
  5 32 1 100
  5 33 1 100
  5 34 1 100
  5 35 1 100
  6 1 1 100
  6 2 1 100
  6 3 1 100
  6 4 1 100
  6 5 1 100
  6 6 1 100
  6 7 1 100
  6 8 1 100
  6 9 1 100
  6 10 1 100
  6 11 1 100
  6 12 1 100
  6 13 1 100
  6 14 1 100
  6 15 1 100
  6 16 1 100
  6 17 1 100
  6 18 1 100
  6 19 1 100
  6 20 1 100
  6 21 1 100
  6 22 1 100
  6 23 1 100
  6 24 1 100
  6 25 1 100
  6 26 1 100
  6 27 1 100
  6 28 1 100
  6 29 1 100
  6 30 1 100
  6 31 1 100
  6 32 1 100
  6 33 1 100
  6 34 1 100
  6 35 1 100
  7 1 1 100
  7 2 1 100
  7 3 1 100
  7 4 1 100
  7 5 1 100
  7 6 1 100
  7 7 1 100
  7 8 1 100
  7 9 1 100
  7 10 1 100
  7 11 1 100
  7 12 1 100
  7 13 1 100
  7 14 1 100
  7 15 1 100
  7 16 1 100
  7 17 1 100
  7 18 1 100
  7 19 1 100
  7 20 1 100
  7 21 1 100
  7 22 1 100
  7 23 1 100
  7 24 1 100
  7 25 1 100
  7 26 1 100
  7 27 1 100
  7 28 1 100
  7 29 1 100
  7 30 1 100
  7 31 1 100
  7 32 1 100
  7 33 1 100
  7 34 1 100
  7 35 1 100
  8 1 1 100
  8 2 1 100
  8 3 1 100
  8 4 1 100
  8 5 1 100
  8 6 1 100
  8 7 1 100
  8 8 1 100
  8 9 1 100
  8 10 1 100
  8 11 1 100
  8 12 1 100
  8 13 1 100
  8 14 1 100
  8 15 1 100
  8 16 1 100
  8 17 1 100
  8 18 1 100
  8 19 1 100
  8 20 1 100
  8 21 1 100
  8 22 1 100
  8 23 1 100
  8 24 1 100
  8 25 1 100
  8 26 1 100
  8 27 1 100
  8 28 1 100
  8 29 1 100
  8 30 1 100
  8 31 1 100
  8 32 1 100
  8 33 1 100
  8 34 1 100
  8 35 1 100
  9 1 1 100
  9 2 1 100
  9 3 1 100
  9 4 1 100
  9 5 1 100
  9 6 1 100
  9 7 1 100
  9 8 1 100
  9 9 1 100
  9 10 1 100
  9 11 1 100
  9 12 1 100
  9 13 1 100
  9 14 1 100
  9 15 1 100
  9 16 1 100
  9 17 1 100
  9 18 1 100
  9 19 1 100
  9 20 1 100
  9 21 1 100
  9 22 1 100
  9 23 1 100
  9 24 1 100
  9 25 1 100
  9 26 1 100
  9 27 1 100
  9 28 1 100
  9 29 1 100
  9 30 1 100
  9 31 1 100
  9 32 1 100
  9 33 1 100
  9 34 1 100
  9 35 1 100
  10 1 1 100
  10 2 1 100
  10 3 1 100
  10 4 1 100
  10 5 1 100
  10 6 1 100
  10 7 1 100
  10 8 1 100
  10 9 1 100
  10 10 1 100
  10 11 1 100
  10 12 1 100
  10 13 1 100
  10 14 1 100
  10 15 1 100
  10 16 1 100
  10 17 1 100
  10 18 1 100
  10 19 1 100
  10 20 1 100
  10 21 1 100
  10 22 1 100
  10 23 1 100
  10 24 1 100
  10 25 1 100
  10 26 1 100
  10 27 1 100
  10 28 1 100
  10 29 1 100
  10 30 1 100
  10 31 1 100
  10 32 1 100
  10 33 1 100
  10 34 1 100
  10 35 1 100
  11 1 1 100
  11 2 1 100
  11 3 1 100
  11 4 1 100
  11 5 1 100
  11 6 1 100
  11 7 1 100
  11 8 1 100
  11 9 1 100
  11 10 1 100
  11 11 1 100
  11 12 1 100
  11 13 1 100
  11 14 1 100
  11 15 1 100
  11 16 1 100
  11 17 1 100
  11 18 1 100
  11 19 1 100
  11 20 1 100
  11 21 1 100
  11 22 1 100
  11 23 1 100
  11 24 1 100
  11 25 1 100
  11 26 1 100
  11 27 1 100
  11 28 1 100
  11 29 1 100
  11 30 1 100
  11 31 1 100
  11 32 1 100
  11 33 1 100
  11 34 1 100
  11 35 1 100
  12 1 1 100
  12 2 1 100
  12 3 1 100
  12 4 1 100
  12 5 1 100
  12 6 1 100
  12 7 1 100
  12 8 1 100
  12 9 1 100
  12 10 1 100
  12 11 1 100
  12 12 1 100
  12 13 1 100
  12 14 1 100
  12 15 1 100
  12 16 1 100
  12 17 1 100
  12 18 1 100
  12 19 1 100
  12 20 1 100
  12 21 1 100
  12 22 1 100
  12 23 1 100
  12 24 1 100
  12 25 1 100
  12 26 1 100
  12 27 1 100
  12 28 1 100
  12 29 1 100
  12 30 1 100
  12 31 1 100
  12 32 1 100
  12 33 1 100
  12 34 1 100
  12 35 1 100
  13 1 1 100
  13 2 1 100
  13 3 1 100
  13 4 1 100
  13 5 1 100
  13 6 1 100
  13 7 1 100
  13 8 1 100
  13 9 1 100
  13 10 1 100
  13 11 1 100
  13 12 1 100
  13 13 1 100
  13 14 1 100
  13 15 1 100
  13 16 1 100
  13 17 1 100
  13 18 1 100
  13 19 1 100
  13 20 1 100
  13 21 1 100
  13 22 1 100
  13 23 1 100
  13 24 1 100
  13 25 1 100
  13 26 1 100
  13 27 1 100
  13 28 1 100
  13 29 1 100
  13 30 1 100
  13 31 1 100
  13 32 1 100
  13 33 1 100
  13 34 1 100
  13 35 1 100
  14 1 1 100
  14 2 1 100
  14 3 1 100
  14 4 1 100
  14 5 1 100
  14 6 1 100
  14 7 1 100
  14 8 1 100
  14 9 1 100
  14 10 1 100
  14 11 1 100
  14 12 1 100
  14 13 1 100
  14 14 1 100
  14 15 1 100
  14 16 1 100
  14 17 1 100
  14 18 1 100
  14 19 1 100
  14 20 1 100
  14 21 1 100
  14 22 1 100
  14 23 1 100
  14 24 1 100
  14 25 1 100
  14 26 1 100
  14 27 1 100
  14 28 1 100
  14 29 1 100
  14 30 1 100
  14 31 1 100
  14 32 1 100
  14 33 1 100
  14 34 1 100
  14 35 1 100
  15 1 1 100
  15 2 1 100
  15 3 1 100
  15 4 1 100
  15 5 1 100
  15 6 1 100
  15 7 1 100
  15 8 1 100
  15 9 1 100
  15 10 1 100
  15 11 1 100
  15 12 1 100
  15 13 1 100
  15 14 1 100
  15 15 1 100
  15 16 1 100
  15 17 1 100
  15 18 1 100
  15 19 1 100
  15 20 1 100
  15 21 1 100
  15 22 1 100
  15 23 1 100
  15 24 1 100
  15 25 1 100
  15 26 1 100
  15 27 1 100
  15 28 1 100
  15 29 1 100
  15 30 1 100
  15 31 1 100
  15 32 1 100
  15 33 1 100
  15 34 1 100
  15 35 1 100
  16 1 1 100
  16 2 1 100
  16 3 1 100
  16 4 1 100
  16 5 1 100
  16 6 1 100
  16 7 1 100
  16 8 1 100
  16 9 1 100
  16 10 1 100
  16 11 1 100
  16 12 1 100
  16 13 1 100
  16 14 1 100
  16 15 1 100
  16 16 1 100
  16 17 1 100
  16 18 1 100
  16 19 1 100
  16 20 1 100
  16 21 1 100
  16 22 1 100
  16 23 1 100
  16 24 1 100
  16 25 1 100
  16 26 1 100
  16 27 1 100
  16 28 1 100
  16 29 1 100
  16 30 1 100
  16 31 1 100
  16 32 1 100
  16 33 1 100
  16 34 1 100
  16 35 1 100
  17 1 1 100
  17 2 1 100
  17 3 1 100
  17 4 1 100
  17 5 1 100
  17 6 1 100
  17 7 1 100
  17 8 1 100
  17 9 1 100
  17 10 1 100
  17 11 1 100
  17 12 1 100
  17 13 1 100
  17 14 1 100
  17 15 1 100
  17 16 1 100
  17 17 1 100
  17 18 1 100
  17 19 1 100
  17 20 1 100
  17 21 1 100
  17 22 1 100
  17 23 1 100
  17 24 1 100
  17 25 1 100
  17 26 1 100
  17 27 1 100
  17 28 1 100
  17 29 1 100
  17 30 1 100
  17 31 1 100
  17 32 1 100
  17 33 1 100
  17 34 1 100
  17 35 1 100
  18 1 1 100
  18 2 1 100
  18 3 1 100
  18 4 1 100
  18 5 1 100
  18 6 1 100
  18 7 1 100
  18 8 1 100
  18 9 1 100
  18 10 1 100
  18 11 1 100
  18 12 1 100
  18 13 1 100
  18 14 1 100
  18 15 1 100
  18 16 1 100
  18 17 1 100
  18 18 1 100
  18 19 1 100
  18 20 1 100
  18 21 1 100
  18 22 1 100
  18 23 1 100
  18 24 1 100
  18 25 1 100
  18 26 1 100
  18 27 1 100
  18 28 1 100
  18 29 1 100
  18 30 1 100
  18 31 1 100
  18 32 1 100
  18 33 1 100
  18 34 1 100
  18 35 1 100
  19 1 1 100
  19 2 1 100
  19 3 1 100
  19 4 1 100
  19 5 1 100
  19 6 1 100
  19 7 1 100
  19 8 1 100
  19 9 1 100
  19 10 1 100
  19 11 1 100
  19 12 1 100
  19 13 1 100
  19 14 1 100
  19 15 1 100
  19 16 1 100
  19 17 1 100
  19 18 1 100
  19 19 1 100
  19 20 1 100
  19 21 1 100
  19 22 1 100
  19 23 1 100
  19 24 1 100
  19 25 1 100
  19 26 1 100
  19 27 1 100
  19 28 1 100
  19 29 1 100
  19 30 1 100
  19 31 1 100
  19 32 1 100
  19 33 1 100
  19 34 1 100
  19 35 1 100
  20 1 1 100
  20 2 1 100
  20 3 1 100
  20 4 1 100
  20 5 1 100
  20 6 1 100
  20 7 1 100
  20 8 1 100
  20 9 1 100
  20 10 1 100
  20 11 1 100
  20 12 1 100
  20 13 1 100
  20 14 1 100
  20 15 1 100
  20 16 1 100
  20 17 1 100
  20 18 1 100
  20 19 1 100
  20 20 1 100
  20 21 1 100
  20 22 1 100
  20 23 1 100
  20 24 1 100
  20 25 1 100
  20 26 1 100
  20 27 1 100
  20 28 1 100
  20 29 1 100
  20 30 1 100
  20 31 1 100
  20 32 1 100
  20 33 1 100
  20 34 1 100
  20 35 1 100
  21 1 1 100
  21 2 1 100
  21 3 1 100
  21 4 1 100
  21 5 1 100
  21 6 1 100
  21 7 1 100
  21 8 1 100
  21 9 1 100
  21 10 1 100
  21 11 1 100
  21 12 1 100
  21 13 1 100
  21 14 1 100
  21 15 1 100
  21 16 1 100
  21 17 1 100
  21 18 1 100
  21 19 1 100
  21 20 1 100
  21 21 1 100
  21 22 1 100
  21 23 1 100
  21 24 1 100
  21 25 1 100
  21 26 1 100
  21 27 1 100
  21 28 1 100
  21 29 1 100
  21 30 1 100
  21 31 1 100
  21 32 1 100
  21 33 1 100
  21 34 1 100
  21 35 1 100
  22 1 1 100
  22 2 1 100
  22 3 1 100
  22 4 1 100
  22 5 1 100
  22 6 1 100
  22 7 1 100
  22 8 1 100
  22 9 1 100
  22 10 1 100
  22 11 1 100
  22 12 1 100
  22 13 1 100
  22 14 1 100
  22 15 1 100
  22 16 1 100
  22 17 1 100
  22 18 1 100
  22 19 1 100
  22 20 1 100
  22 21 1 100
  22 22 1 100
  22 23 1 100
  22 24 1 100
  22 25 1 100
  22 26 1 100
  22 27 1 100
  22 28 1 100
  22 29 1 100
  22 30 1 100
  22 31 1 100
  22 32 1 100
  22 33 1 100
  22 34 1 100
  22 35 1 100
  23 1 1 100
  23 2 1 100
  23 3 1 100
  23 4 1 100
  23 5 1 100
  23 6 1 100
  23 7 1 100
  23 8 1 100
  23 9 1 100
  23 10 1 100
  23 11 1 100
  23 12 1 100
  23 13 1 100
  23 14 1 100
  23 15 1 100
  23 16 1 100
  23 17 1 100
  23 18 1 100
  23 19 1 100
  23 20 1 100
  23 21 1 100
  23 22 1 100
  23 23 1 100
  23 24 1 100
  23 25 1 100
  23 26 1 100
  23 27 1 100
  23 28 1 100
  23 29 1 100
  23 30 1 100
  23 31 1 100
  23 32 1 100
  23 33 1 100
  23 34 1 100
  23 35 1 100
  24 1 1 100
  24 2 1 100
  24 3 1 100
  24 4 1 100
  24 5 1 100
  24 6 1 100
  24 7 1 100
  24 8 1 100
  24 9 1 100
  24 10 1 100
  24 11 1 100
  24 12 1 100
  24 13 1 100
  24 14 1 100
  24 15 1 100
  24 16 1 100
  24 17 1 100
  24 18 1 100
  24 19 1 100
  24 20 1 100
  24 21 1 100
  24 22 1 100
  24 23 1 100
  24 24 1 100
  24 25 1 100
  24 26 1 100
  24 27 1 100
  24 28 1 100
  24 29 1 100
  24 30 1 100
  24 31 1 100
  24 32 1 100
  24 33 1 100
  24 34 1 100
  24 35 1 100
  25 1 1 100
  25 2 1 100
  25 3 1 100
  25 4 1 100
  25 5 1 100
  25 6 1 100
  25 7 1 100
  25 8 1 100
  25 9 1 100
  25 10 1 100
  25 11 1 100
  25 12 1 100
  25 13 1 100
  25 14 1 100
  25 15 1 100
  25 16 1 100
  25 17 1 100
  25 18 1 100
  25 19 1 100
  25 20 1 100
  25 21 1 100
  25 22 1 100
  25 23 1 100
  25 24 1 100
  25 25 1 100
  25 26 1 100
  25 27 1 100
  25 28 1 100
  25 29 1 100
  25 30 1 100
  25 31 1 100
  25 32 1 100
  25 33 1 100
  25 34 1 100
  25 35 1 100
  26 1 1 100
  26 2 1 100
  26 3 1 100
  26 4 1 100
  26 5 1 100
  26 6 1 100
  26 7 1 100
  26 8 1 100
  26 9 1 100
  26 10 1 100
  26 11 1 100
  26 12 1 100
  26 13 1 100
  26 14 1 100
  26 15 1 100
  26 16 1 100
  26 17 1 100
  26 18 1 100
  26 19 1 100
  26 20 1 100
  26 21 1 100
  26 22 1 100
  26 23 1 100
  26 24 1 100
  26 25 1 100
  26 26 1 100
  26 27 1 100
  26 28 1 100
  26 29 1 100
  26 30 1 100
  26 31 1 100
  26 32 1 100
  26 33 1 100
  26 34 1 100
  26 35 1 100
  27 1 1 100
  27 2 1 100
  27 3 1 100
  27 4 1 100
  27 5 1 100
  27 6 1 100
  27 7 1 100
  27 8 1 100
  27 9 1 100
  27 10 1 100
  27 11 1 100
  27 12 1 100
  27 13 1 100
  27 14 1 100
  27 15 1 100
  27 16 1 100
  27 17 1 100
  27 18 1 100
  27 19 1 100
  27 20 1 100
  27 21 1 100
  27 22 1 100
  27 23 1 100
  27 24 1 100
  27 25 1 100
  27 26 1 100
  27 27 1 100
  27 28 1 100
  27 29 1 100
  27 30 1 100
  27 31 1 100
  27 32 1 100
  27 33 1 100
  27 34 1 100
  27 35 1 100
  28 1 1 100
  28 2 1 100
  28 3 1 100
  28 4 1 100
  28 5 1 100
  28 6 1 100
  28 7 1 100
  28 8 1 100
  28 9 1 100
  28 10 1 100
  28 11 1 100
  28 12 1 100
  28 13 1 100
  28 14 1 100
  28 15 1 100
  28 16 1 100
  28 17 1 100
  28 18 1 100
  28 19 1 100
  28 20 1 100
  28 21 1 100
  28 22 1 100
  28 23 1 100
  28 24 1 100
  28 25 1 100
  28 26 1 100
  28 27 1 100
  28 28 1 100
  28 29 1 100
  28 30 1 100
  28 31 1 100
  28 32 1 100
  28 33 1 100
  28 34 1 100
  28 35 1 100
  29 1 1 100
  29 2 1 100
  29 3 1 100
  29 4 1 100
  29 5 1 100
  29 6 1 100
  29 7 1 100
  29 8 1 100
  29 9 1 100
  29 10 1 100
  29 11 1 100
  29 12 1 100
  29 13 1 100
  29 14 1 100
  29 15 1 100
  29 16 1 100
  29 17 1 100
  29 18 1 100
  29 19 1 100
  29 20 1 100
  29 21 1 100
  29 22 1 100
  29 23 1 100
  29 24 1 100
  29 25 1 100
  29 26 1 100
  29 27 1 100
  29 28 1 100
  29 29 1 100
  29 30 1 100
  29 31 1 100
  29 32 1 100
  29 33 1 100
  29 34 1 100
  29 35 1 100
  30 1 1 100
  30 2 1 100
  30 3 1 100
  30 4 1 100
  30 5 1 100
  30 6 1 100
  30 7 1 100
  30 8 1 100
  30 9 1 100
  30 10 1 100
  30 11 1 100
  30 12 1 100
  30 13 1 100
  30 14 1 100
  30 15 1 100
  30 16 1 100
  30 17 1 100
  30 18 1 100
  30 19 1 100
  30 20 1 100
  30 21 1 100
  30 22 1 100
  30 23 1 100
  30 24 1 100
  30 25 1 100
  30 26 1 100
  30 27 1 100
  30 28 1 100
  30 29 1 100
  30 30 1 100
  30 31 1 100
  30 32 1 100
  30 33 1 100
  30 34 1 100
  30 35 1 100
  1 1 35 0
  1 2 35 0
  1 3 35 0
  1 4 35 0
  1 5 35 0
  1 6 35 0
  1 7 35 0
  1 8 35 0
  1 9 35 0
  1 10 35 0
  1 11 35 0
  1 12 35 0
  1 13 35 0
  1 14 35 0
  1 15 35 0
  1 16 35 0
  1 17 35 0
  1 18 35 0
  1 19 35 0
  1 20 35 0
  1 21 35 0
  1 22 35 0
  1 23 35 0
  1 24 35 0
  1 25 35 0
  1 26 35 0
  1 27 35 0
  1 28 35 0
  1 29 35 0
  1 30 35 0
  1 31 35 0
  1 32 35 0
  1 33 35 0
  1 34 35 0
  1 35 35 0
  2 1 35 0
  2 2 35 0
  2 3 35 0
  2 4 35 0
  2 5 35 0
  2 6 35 0
  2 7 35 0
  2 8 35 0
  2 9 35 0
  2 10 35 0
  2 11 35 0
  2 12 35 0
  2 13 35 0
  2 14 35 0
  2 15 35 0
  2 16 35 0
  2 17 35 0
  2 18 35 0
  2 19 35 0
  2 20 35 0
  2 21 35 0
  2 22 35 0
  2 23 35 0
  2 24 35 0
  2 25 35 0
  2 26 35 0
  2 27 35 0
  2 28 35 0
  2 29 35 0
  2 30 35 0
  2 31 35 0
  2 32 35 0
  2 33 35 0
  2 34 35 0
  2 35 35 0
  3 1 35 0
  3 2 35 0
  3 3 35 0
  3 4 35 0
  3 5 35 0
  3 6 35 0
  3 7 35 0
  3 8 35 0
  3 9 35 0
  3 10 35 0
  3 11 35 0
  3 12 35 0
  3 13 35 0
  3 14 35 0
  3 15 35 0
  3 16 35 0
  3 17 35 0
  3 18 35 0
  3 19 35 0
  3 20 35 0
  3 21 35 0
  3 22 35 0
  3 23 35 0
  3 24 35 0
  3 25 35 0
  3 26 35 0
  3 27 35 0
  3 28 35 0
  3 29 35 0
  3 30 35 0
  3 31 35 0
  3 32 35 0
  3 33 35 0
  3 34 35 0
  3 35 35 0
  4 1 35 0
  4 2 35 0
  4 3 35 0
  4 4 35 0
  4 5 35 0
  4 6 35 0
  4 7 35 0
  4 8 35 0
  4 9 35 0
  4 10 35 0
  4 11 35 0
  4 12 35 0
  4 13 35 0
  4 14 35 0
  4 15 35 0
  4 16 35 0
  4 17 35 0
  4 18 35 0
  4 19 35 0
  4 20 35 0
  4 21 35 0
  4 22 35 0
  4 23 35 0
  4 24 35 0
  4 25 35 0
  4 26 35 0
  4 27 35 0
  4 28 35 0
  4 29 35 0
  4 30 35 0
  4 31 35 0
  4 32 35 0
  4 33 35 0
  4 34 35 0
  4 35 35 0
  5 1 35 0
  5 2 35 0
  5 3 35 0
  5 4 35 0
  5 5 35 0
  5 6 35 0
  5 7 35 0
  5 8 35 0
  5 9 35 0
  5 10 35 0
  5 11 35 0
  5 12 35 0
  5 13 35 0
  5 14 35 0
  5 15 35 0
  5 16 35 0
  5 17 35 0
  5 18 35 0
  5 19 35 0
  5 20 35 0
  5 21 35 0
  5 22 35 0
  5 23 35 0
  5 24 35 0
  5 25 35 0
  5 26 35 0
  5 27 35 0
  5 28 35 0
  5 29 35 0
  5 30 35 0
  5 31 35 0
  5 32 35 0
  5 33 35 0
  5 34 35 0
  5 35 35 0
  6 1 35 0
  6 2 35 0
  6 3 35 0
  6 4 35 0
  6 5 35 0
  6 6 35 0
  6 7 35 0
  6 8 35 0
  6 9 35 0
  6 10 35 0
  6 11 35 0
  6 12 35 0
  6 13 35 0
  6 14 35 0
  6 15 35 0
  6 16 35 0
  6 17 35 0
  6 18 35 0
  6 19 35 0
  6 20 35 0
  6 21 35 0
  6 22 35 0
  6 23 35 0
  6 24 35 0
  6 25 35 0
  6 26 35 0
  6 27 35 0
  6 28 35 0
  6 29 35 0
  6 30 35 0
  6 31 35 0
  6 32 35 0
  6 33 35 0
  6 34 35 0
  6 35 35 0
  7 1 35 0
  7 2 35 0
  7 3 35 0
  7 4 35 0
  7 5 35 0
  7 6 35 0
  7 7 35 0
  7 8 35 0
  7 9 35 0
  7 10 35 0
  7 11 35 0
  7 12 35 0
  7 13 35 0
  7 14 35 0
  7 15 35 0
  7 16 35 0
  7 17 35 0
  7 18 35 0
  7 19 35 0
  7 20 35 0
  7 21 35 0
  7 22 35 0
  7 23 35 0
  7 24 35 0
  7 25 35 0
  7 26 35 0
  7 27 35 0
  7 28 35 0
  7 29 35 0
  7 30 35 0
  7 31 35 0
  7 32 35 0
  7 33 35 0
  7 34 35 0
  7 35 35 0
  8 1 35 0
  8 2 35 0
  8 3 35 0
  8 4 35 0
  8 5 35 0
  8 6 35 0
  8 7 35 0
  8 8 35 0
  8 9 35 0
  8 10 35 0
  8 11 35 0
  8 12 35 0
  8 13 35 0
  8 14 35 0
  8 15 35 0
  8 16 35 0
  8 17 35 0
  8 18 35 0
  8 19 35 0
  8 20 35 0
  8 21 35 0
  8 22 35 0
  8 23 35 0
  8 24 35 0
  8 25 35 0
  8 26 35 0
  8 27 35 0
  8 28 35 0
  8 29 35 0
  8 30 35 0
  8 31 35 0
  8 32 35 0
  8 33 35 0
  8 34 35 0
  8 35 35 0
  9 1 35 0
  9 2 35 0
  9 3 35 0
  9 4 35 0
  9 5 35 0
  9 6 35 0
  9 7 35 0
  9 8 35 0
  9 9 35 0
  9 10 35 0
  9 11 35 0
  9 12 35 0
  9 13 35 0
  9 14 35 0
  9 15 35 0
  9 16 35 0
  9 17 35 0
  9 18 35 0
  9 19 35 0
  9 20 35 0
  9 21 35 0
  9 22 35 0
  9 23 35 0
  9 24 35 0
  9 25 35 0
  9 26 35 0
  9 27 35 0
  9 28 35 0
  9 29 35 0
  9 30 35 0
  9 31 35 0
  9 32 35 0
  9 33 35 0
  9 34 35 0
  9 35 35 0
  10 1 35 0
  10 2 35 0
  10 3 35 0
  10 4 35 0
  10 5 35 0
  10 6 35 0
  10 7 35 0
  10 8 35 0
  10 9 35 0
  10 10 35 0
  10 11 35 0
  10 12 35 0
  10 13 35 0
  10 14 35 0
  10 15 35 0
  10 16 35 0
  10 17 35 0
  10 18 35 0
  10 19 35 0
  10 20 35 0
  10 21 35 0
  10 22 35 0
  10 23 35 0
  10 24 35 0
  10 25 35 0
  10 26 35 0
  10 27 35 0
  10 28 35 0
  10 29 35 0
  10 30 35 0
  10 31 35 0
  10 32 35 0
  10 33 35 0
  10 34 35 0
  10 35 35 0
  11 1 35 0
  11 2 35 0
  11 3 35 0
  11 4 35 0
  11 5 35 0
  11 6 35 0
  11 7 35 0
  11 8 35 0
  11 9 35 0
  11 10 35 0
  11 11 35 0
  11 12 35 0
  11 13 35 0
  11 14 35 0
  11 15 35 0
  11 16 35 0
  11 17 35 0
  11 18 35 0
  11 19 35 0
  11 20 35 0
  11 21 35 0
  11 22 35 0
  11 23 35 0
  11 24 35 0
  11 25 35 0
  11 26 35 0
  11 27 35 0
  11 28 35 0
  11 29 35 0
  11 30 35 0
  11 31 35 0
  11 32 35 0
  11 33 35 0
  11 34 35 0
  11 35 35 0
  12 1 35 0
  12 2 35 0
  12 3 35 0
  12 4 35 0
  12 5 35 0
  12 6 35 0
  12 7 35 0
  12 8 35 0
  12 9 35 0
  12 10 35 0
  12 11 35 0
  12 12 35 0
  12 13 35 0
  12 14 35 0
  12 15 35 0
  12 16 35 0
  12 17 35 0
  12 18 35 0
  12 19 35 0
  12 20 35 0
  12 21 35 0
  12 22 35 0
  12 23 35 0
  12 24 35 0
  12 25 35 0
  12 26 35 0
  12 27 35 0
  12 28 35 0
  12 29 35 0
  12 30 35 0
  12 31 35 0
  12 32 35 0
  12 33 35 0
  12 34 35 0
  12 35 35 0
  13 1 35 0
  13 2 35 0
  13 3 35 0
  13 4 35 0
  13 5 35 0
  13 6 35 0
  13 7 35 0
  13 8 35 0
  13 9 35 0
  13 10 35 0
  13 11 35 0
  13 12 35 0
  13 13 35 0
  13 14 35 0
  13 15 35 0
  13 16 35 0
  13 17 35 0
  13 18 35 0
  13 19 35 0
  13 20 35 0
  13 21 35 0
  13 22 35 0
  13 23 35 0
  13 24 35 0
  13 25 35 0
  13 26 35 0
  13 27 35 0
  13 28 35 0
  13 29 35 0
  13 30 35 0
  13 31 35 0
  13 32 35 0
  13 33 35 0
  13 34 35 0
  13 35 35 0
  14 1 35 0
  14 2 35 0
  14 3 35 0
  14 4 35 0
  14 5 35 0
  14 6 35 0
  14 7 35 0
  14 8 35 0
  14 9 35 0
  14 10 35 0
  14 11 35 0
  14 12 35 0
  14 13 35 0
  14 14 35 0
  14 15 35 0
  14 16 35 0
  14 17 35 0
  14 18 35 0
  14 19 35 0
  14 20 35 0
  14 21 35 0
  14 22 35 0
  14 23 35 0
  14 24 35 0
  14 25 35 0
  14 26 35 0
  14 27 35 0
  14 28 35 0
  14 29 35 0
  14 30 35 0
  14 31 35 0
  14 32 35 0
  14 33 35 0
  14 34 35 0
  14 35 35 0
  15 1 35 0
  15 2 35 0
  15 3 35 0
  15 4 35 0
  15 5 35 0
  15 6 35 0
  15 7 35 0
  15 8 35 0
  15 9 35 0
  15 10 35 0
  15 11 35 0
  15 12 35 0
  15 13 35 0
  15 14 35 0
  15 15 35 0
  15 16 35 0
  15 17 35 0
  15 18 35 0
  15 19 35 0
  15 20 35 0
  15 21 35 0
  15 22 35 0
  15 23 35 0
  15 24 35 0
  15 25 35 0
  15 26 35 0
  15 27 35 0
  15 28 35 0
  15 29 35 0
  15 30 35 0
  15 31 35 0
  15 32 35 0
  15 33 35 0
  15 34 35 0
  15 35 35 0
  16 1 35 0
  16 2 35 0
  16 3 35 0
  16 4 35 0
  16 5 35 0
  16 6 35 0
  16 7 35 0
  16 8 35 0
  16 9 35 0
  16 10 35 0
  16 11 35 0
  16 12 35 0
  16 13 35 0
  16 14 35 0
  16 15 35 0
  16 16 35 0
  16 17 35 0
  16 18 35 0
  16 19 35 0
  16 20 35 0
  16 21 35 0
  16 22 35 0
  16 23 35 0
  16 24 35 0
  16 25 35 0
  16 26 35 0
  16 27 35 0
  16 28 35 0
  16 29 35 0
  16 30 35 0
  16 31 35 0
  16 32 35 0
  16 33 35 0
  16 34 35 0
  16 35 35 0
  17 1 35 0
  17 2 35 0
  17 3 35 0
  17 4 35 0
  17 5 35 0
  17 6 35 0
  17 7 35 0
  17 8 35 0
  17 9 35 0
  17 10 35 0
  17 11 35 0
  17 12 35 0
  17 13 35 0
  17 14 35 0
  17 15 35 0
  17 16 35 0
  17 17 35 0
  17 18 35 0
  17 19 35 0
  17 20 35 0
  17 21 35 0
  17 22 35 0
  17 23 35 0
  17 24 35 0
  17 25 35 0
  17 26 35 0
  17 27 35 0
  17 28 35 0
  17 29 35 0
  17 30 35 0
  17 31 35 0
  17 32 35 0
  17 33 35 0
  17 34 35 0
  17 35 35 0
  18 1 35 0
  18 2 35 0
  18 3 35 0
  18 4 35 0
  18 5 35 0
  18 6 35 0
  18 7 35 0
  18 8 35 0
  18 9 35 0
  18 10 35 0
  18 11 35 0
  18 12 35 0
  18 13 35 0
  18 14 35 0
  18 15 35 0
  18 16 35 0
  18 17 35 0
  18 18 35 0
  18 19 35 0
  18 20 35 0
  18 21 35 0
  18 22 35 0
  18 23 35 0
  18 24 35 0
  18 25 35 0
  18 26 35 0
  18 27 35 0
  18 28 35 0
  18 29 35 0
  18 30 35 0
  18 31 35 0
  18 32 35 0
  18 33 35 0
  18 34 35 0
  18 35 35 0
  19 1 35 0
  19 2 35 0
  19 3 35 0
  19 4 35 0
  19 5 35 0
  19 6 35 0
  19 7 35 0
  19 8 35 0
  19 9 35 0
  19 10 35 0
  19 11 35 0
  19 12 35 0
  19 13 35 0
  19 14 35 0
  19 15 35 0
  19 16 35 0
  19 17 35 0
  19 18 35 0
  19 19 35 0
  19 20 35 0
  19 21 35 0
  19 22 35 0
  19 23 35 0
  19 24 35 0
  19 25 35 0
  19 26 35 0
  19 27 35 0
  19 28 35 0
  19 29 35 0
  19 30 35 0
  19 31 35 0
  19 32 35 0
  19 33 35 0
  19 34 35 0
  19 35 35 0
  20 1 35 0
  20 2 35 0
  20 3 35 0
  20 4 35 0
  20 5 35 0
  20 6 35 0
  20 7 35 0
  20 8 35 0
  20 9 35 0
  20 10 35 0
  20 11 35 0
  20 12 35 0
  20 13 35 0
  20 14 35 0
  20 15 35 0
  20 16 35 0
  20 17 35 0
  20 18 35 0
  20 19 35 0
  20 20 35 0
  20 21 35 0
  20 22 35 0
  20 23 35 0
  20 24 35 0
  20 25 35 0
  20 26 35 0
  20 27 35 0
  20 28 35 0
  20 29 35 0
  20 30 35 0
  20 31 35 0
  20 32 35 0
  20 33 35 0
  20 34 35 0
  20 35 35 0
  21 1 35 0
  21 2 35 0
  21 3 35 0
  21 4 35 0
  21 5 35 0
  21 6 35 0
  21 7 35 0
  21 8 35 0
  21 9 35 0
  21 10 35 0
  21 11 35 0
  21 12 35 0
  21 13 35 0
  21 14 35 0
  21 15 35 0
  21 16 35 0
  21 17 35 0
  21 18 35 0
  21 19 35 0
  21 20 35 0
  21 21 35 0
  21 22 35 0
  21 23 35 0
  21 24 35 0
  21 25 35 0
  21 26 35 0
  21 27 35 0
  21 28 35 0
  21 29 35 0
  21 30 35 0
  21 31 35 0
  21 32 35 0
  21 33 35 0
  21 34 35 0
  21 35 35 0
  22 1 35 0
  22 2 35 0
  22 3 35 0
  22 4 35 0
  22 5 35 0
  22 6 35 0
  22 7 35 0
  22 8 35 0
  22 9 35 0
  22 10 35 0
  22 11 35 0
  22 12 35 0
  22 13 35 0
  22 14 35 0
  22 15 35 0
  22 16 35 0
  22 17 35 0
  22 18 35 0
  22 19 35 0
  22 20 35 0
  22 21 35 0
  22 22 35 0
  22 23 35 0
  22 24 35 0
  22 25 35 0
  22 26 35 0
  22 27 35 0
  22 28 35 0
  22 29 35 0
  22 30 35 0
  22 31 35 0
  22 32 35 0
  22 33 35 0
  22 34 35 0
  22 35 35 0
  23 1 35 0
  23 2 35 0
  23 3 35 0
  23 4 35 0
  23 5 35 0
  23 6 35 0
  23 7 35 0
  23 8 35 0
  23 9 35 0
  23 10 35 0
  23 11 35 0
  23 12 35 0
  23 13 35 0
  23 14 35 0
  23 15 35 0
  23 16 35 0
  23 17 35 0
  23 18 35 0
  23 19 35 0
  23 20 35 0
  23 21 35 0
  23 22 35 0
  23 23 35 0
  23 24 35 0
  23 25 35 0
  23 26 35 0
  23 27 35 0
  23 28 35 0
  23 29 35 0
  23 30 35 0
  23 31 35 0
  23 32 35 0
  23 33 35 0
  23 34 35 0
  23 35 35 0
  24 1 35 0
  24 2 35 0
  24 3 35 0
  24 4 35 0
  24 5 35 0
  24 6 35 0
  24 7 35 0
  24 8 35 0
  24 9 35 0
  24 10 35 0
  24 11 35 0
  24 12 35 0
  24 13 35 0
  24 14 35 0
  24 15 35 0
  24 16 35 0
  24 17 35 0
  24 18 35 0
  24 19 35 0
  24 20 35 0
  24 21 35 0
  24 22 35 0
  24 23 35 0
  24 24 35 0
  24 25 35 0
  24 26 35 0
  24 27 35 0
  24 28 35 0
  24 29 35 0
  24 30 35 0
  24 31 35 0
  24 32 35 0
  24 33 35 0
  24 34 35 0
  24 35 35 0
  25 1 35 0
  25 2 35 0
  25 3 35 0
  25 4 35 0
  25 5 35 0
  25 6 35 0
  25 7 35 0
  25 8 35 0
  25 9 35 0
  25 10 35 0
  25 11 35 0
  25 12 35 0
  25 13 35 0
  25 14 35 0
  25 15 35 0
  25 16 35 0
  25 17 35 0
  25 18 35 0
  25 19 35 0
  25 20 35 0
  25 21 35 0
  25 22 35 0
  25 23 35 0
  25 24 35 0
  25 25 35 0
  25 26 35 0
  25 27 35 0
  25 28 35 0
  25 29 35 0
  25 30 35 0
  25 31 35 0
  25 32 35 0
  25 33 35 0
  25 34 35 0
  25 35 35 0
  26 1 35 0
  26 2 35 0
  26 3 35 0
  26 4 35 0
  26 5 35 0
  26 6 35 0
  26 7 35 0
  26 8 35 0
  26 9 35 0
  26 10 35 0
  26 11 35 0
  26 12 35 0
  26 13 35 0
  26 14 35 0
  26 15 35 0
  26 16 35 0
  26 17 35 0
  26 18 35 0
  26 19 35 0
  26 20 35 0
  26 21 35 0
  26 22 35 0
  26 23 35 0
  26 24 35 0
  26 25 35 0
  26 26 35 0
  26 27 35 0
  26 28 35 0
  26 29 35 0
  26 30 35 0
  26 31 35 0
  26 32 35 0
  26 33 35 0
  26 34 35 0
  26 35 35 0
  27 1 35 0
  27 2 35 0
  27 3 35 0
  27 4 35 0
  27 5 35 0
  27 6 35 0
  27 7 35 0
  27 8 35 0
  27 9 35 0
  27 10 35 0
  27 11 35 0
  27 12 35 0
  27 13 35 0
  27 14 35 0
  27 15 35 0
  27 16 35 0
  27 17 35 0
  27 18 35 0
  27 19 35 0
  27 20 35 0
  27 21 35 0
  27 22 35 0
  27 23 35 0
  27 24 35 0
  27 25 35 0
  27 26 35 0
  27 27 35 0
  27 28 35 0
  27 29 35 0
  27 30 35 0
  27 31 35 0
  27 32 35 0
  27 33 35 0
  27 34 35 0
  27 35 35 0
  28 1 35 0
  28 2 35 0
  28 3 35 0
  28 4 35 0
  28 5 35 0
  28 6 35 0
  28 7 35 0
  28 8 35 0
  28 9 35 0
  28 10 35 0
  28 11 35 0
  28 12 35 0
  28 13 35 0
  28 14 35 0
  28 15 35 0
  28 16 35 0
  28 17 35 0
  28 18 35 0
  28 19 35 0
  28 20 35 0
  28 21 35 0
  28 22 35 0
  28 23 35 0
  28 24 35 0
  28 25 35 0
  28 26 35 0
  28 27 35 0
  28 28 35 0
  28 29 35 0
  28 30 35 0
  28 31 35 0
  28 32 35 0
  28 33 35 0
  28 34 35 0
  28 35 35 0
  29 1 35 0
  29 2 35 0
  29 3 35 0
  29 4 35 0
  29 5 35 0
  29 6 35 0
  29 7 35 0
  29 8 35 0
  29 9 35 0
  29 10 35 0
  29 11 35 0
  29 12 35 0
  29 13 35 0
  29 14 35 0
  29 15 35 0
  29 16 35 0
  29 17 35 0
  29 18 35 0
  29 19 35 0
  29 20 35 0
  29 21 35 0
  29 22 35 0
  29 23 35 0
  29 24 35 0
  29 25 35 0
  29 26 35 0
  29 27 35 0
  29 28 35 0
  29 29 35 0
  29 30 35 0
  29 31 35 0
  29 32 35 0
  29 33 35 0
  29 34 35 0
  29 35 35 0
  30 1 35 0
  30 2 35 0
  30 3 35 0
  30 4 35 0
  30 5 35 0
  30 6 35 0
  30 7 35 0
  30 8 35 0
  30 9 35 0
  30 10 35 0
  30 11 35 0
  30 12 35 0
  30 13 35 0
  30 14 35 0
  30 15 35 0
  30 16 35 0
  30 17 35 0
  30 18 35 0
  30 19 35 0
  30 20 35 0
  30 21 35 0
  30 22 35 0
  30 23 35 0
  30 24 35 0
  30 25 35 0
  30 26 35 0
  30 27 35 0
  30 28 35 0
  30 29 35 0
  30 30 35 0
  30 31 35 0
  30 32 35 0
  30 33 35 0
  30 34 35 0
  30 35 35 0
END period  1

