# File generated by Flopy version 3.9.1 on 01/20/2025 at 21:52:40.
BEGIN options
  SAVE_FLOWS
END options

BEGIN dimensions
  MAXBOUND  7800
END dimensions

BEGIN period  1
  11 1 1 100
  11 2 1 100
  11 3 1 100
  11 4 1 100
  11 5 1 100
  11 6 1 100
  11 7 1 100
  11 8 1 100
  11 9 1 100
  11 10 1 100
  11 11 1 100
  11 12 1 100
  11 13 1 100
  11 14 1 100
  11 15 1 100
  11 16 1 100
  11 17 1 100
  11 18 1 100
  11 19 1 100
  11 20 1 100
  11 21 1 100
  11 22 1 100
  11 23 1 100
  11 24 1 100
  11 25 1 100
  11 26 1 100
  11 27 1 100
  11 28 1 100
  11 29 1 100
  11 30 1 100
  11 31 1 100
  11 32 1 100
  11 33 1 100
  11 34 1 100
  11 35 1 100
  11 36 1 100
  11 37 1 100
  11 38 1 100
  11 39 1 100
  11 40 1 100
  11 41 1 100
  11 42 1 100
  11 43 1 100
  11 44 1 100
  11 45 1 100
  11 46 1 100
  11 47 1 100
  11 48 1 100
  11 49 1 100
  11 50 1 100
  11 51 1 100
  11 52 1 100
  11 53 1 100
  11 54 1 100
  11 55 1 100
  11 56 1 100
  11 57 1 100
  11 58 1 100
  11 59 1 100
  11 60 1 100
  11 61 1 100
  11 62 1 100
  11 63 1 100
  11 64 1 100
  11 65 1 100
  12 1 1 100
  12 2 1 100
  12 3 1 100
  12 4 1 100
  12 5 1 100
  12 6 1 100
  12 7 1 100
  12 8 1 100
  12 9 1 100
  12 10 1 100
  12 11 1 100
  12 12 1 100
  12 13 1 100
  12 14 1 100
  12 15 1 100
  12 16 1 100
  12 17 1 100
  12 18 1 100
  12 19 1 100
  12 20 1 100
  12 21 1 100
  12 22 1 100
  12 23 1 100
  12 24 1 100
  12 25 1 100
  12 26 1 100
  12 27 1 100
  12 28 1 100
  12 29 1 100
  12 30 1 100
  12 31 1 100
  12 32 1 100
  12 33 1 100
  12 34 1 100
  12 35 1 100
  12 36 1 100
  12 37 1 100
  12 38 1 100
  12 39 1 100
  12 40 1 100
  12 41 1 100
  12 42 1 100
  12 43 1 100
  12 44 1 100
  12 45 1 100
  12 46 1 100
  12 47 1 100
  12 48 1 100
  12 49 1 100
  12 50 1 100
  12 51 1 100
  12 52 1 100
  12 53 1 100
  12 54 1 100
  12 55 1 100
  12 56 1 100
  12 57 1 100
  12 58 1 100
  12 59 1 100
  12 60 1 100
  12 61 1 100
  12 62 1 100
  12 63 1 100
  12 64 1 100
  12 65 1 100
  13 1 1 100
  13 2 1 100
  13 3 1 100
  13 4 1 100
  13 5 1 100
  13 6 1 100
  13 7 1 100
  13 8 1 100
  13 9 1 100
  13 10 1 100
  13 11 1 100
  13 12 1 100
  13 13 1 100
  13 14 1 100
  13 15 1 100
  13 16 1 100
  13 17 1 100
  13 18 1 100
  13 19 1 100
  13 20 1 100
  13 21 1 100
  13 22 1 100
  13 23 1 100
  13 24 1 100
  13 25 1 100
  13 26 1 100
  13 27 1 100
  13 28 1 100
  13 29 1 100
  13 30 1 100
  13 31 1 100
  13 32 1 100
  13 33 1 100
  13 34 1 100
  13 35 1 100
  13 36 1 100
  13 37 1 100
  13 38 1 100
  13 39 1 100
  13 40 1 100
  13 41 1 100
  13 42 1 100
  13 43 1 100
  13 44 1 100
  13 45 1 100
  13 46 1 100
  13 47 1 100
  13 48 1 100
  13 49 1 100
  13 50 1 100
  13 51 1 100
  13 52 1 100
  13 53 1 100
  13 54 1 100
  13 55 1 100
  13 56 1 100
  13 57 1 100
  13 58 1 100
  13 59 1 100
  13 60 1 100
  13 61 1 100
  13 62 1 100
  13 63 1 100
  13 64 1 100
  13 65 1 100
  14 1 1 100
  14 2 1 100
  14 3 1 100
  14 4 1 100
  14 5 1 100
  14 6 1 100
  14 7 1 100
  14 8 1 100
  14 9 1 100
  14 10 1 100
  14 11 1 100
  14 12 1 100
  14 13 1 100
  14 14 1 100
  14 15 1 100
  14 16 1 100
  14 17 1 100
  14 18 1 100
  14 19 1 100
  14 20 1 100
  14 21 1 100
  14 22 1 100
  14 23 1 100
  14 24 1 100
  14 25 1 100
  14 26 1 100
  14 27 1 100
  14 28 1 100
  14 29 1 100
  14 30 1 100
  14 31 1 100
  14 32 1 100
  14 33 1 100
  14 34 1 100
  14 35 1 100
  14 36 1 100
  14 37 1 100
  14 38 1 100
  14 39 1 100
  14 40 1 100
  14 41 1 100
  14 42 1 100
  14 43 1 100
  14 44 1 100
  14 45 1 100
  14 46 1 100
  14 47 1 100
  14 48 1 100
  14 49 1 100
  14 50 1 100
  14 51 1 100
  14 52 1 100
  14 53 1 100
  14 54 1 100
  14 55 1 100
  14 56 1 100
  14 57 1 100
  14 58 1 100
  14 59 1 100
  14 60 1 100
  14 61 1 100
  14 62 1 100
  14 63 1 100
  14 64 1 100
  14 65 1 100
  15 1 1 100
  15 2 1 100
  15 3 1 100
  15 4 1 100
  15 5 1 100
  15 6 1 100
  15 7 1 100
  15 8 1 100
  15 9 1 100
  15 10 1 100
  15 11 1 100
  15 12 1 100
  15 13 1 100
  15 14 1 100
  15 15 1 100
  15 16 1 100
  15 17 1 100
  15 18 1 100
  15 19 1 100
  15 20 1 100
  15 21 1 100
  15 22 1 100
  15 23 1 100
  15 24 1 100
  15 25 1 100
  15 26 1 100
  15 27 1 100
  15 28 1 100
  15 29 1 100
  15 30 1 100
  15 31 1 100
  15 32 1 100
  15 33 1 100
  15 34 1 100
  15 35 1 100
  15 36 1 100
  15 37 1 100
  15 38 1 100
  15 39 1 100
  15 40 1 100
  15 41 1 100
  15 42 1 100
  15 43 1 100
  15 44 1 100
  15 45 1 100
  15 46 1 100
  15 47 1 100
  15 48 1 100
  15 49 1 100
  15 50 1 100
  15 51 1 100
  15 52 1 100
  15 53 1 100
  15 54 1 100
  15 55 1 100
  15 56 1 100
  15 57 1 100
  15 58 1 100
  15 59 1 100
  15 60 1 100
  15 61 1 100
  15 62 1 100
  15 63 1 100
  15 64 1 100
  15 65 1 100
  16 1 1 100
  16 2 1 100
  16 3 1 100
  16 4 1 100
  16 5 1 100
  16 6 1 100
  16 7 1 100
  16 8 1 100
  16 9 1 100
  16 10 1 100
  16 11 1 100
  16 12 1 100
  16 13 1 100
  16 14 1 100
  16 15 1 100
  16 16 1 100
  16 17 1 100
  16 18 1 100
  16 19 1 100
  16 20 1 100
  16 21 1 100
  16 22 1 100
  16 23 1 100
  16 24 1 100
  16 25 1 100
  16 26 1 100
  16 27 1 100
  16 28 1 100
  16 29 1 100
  16 30 1 100
  16 31 1 100
  16 32 1 100
  16 33 1 100
  16 34 1 100
  16 35 1 100
  16 36 1 100
  16 37 1 100
  16 38 1 100
  16 39 1 100
  16 40 1 100
  16 41 1 100
  16 42 1 100
  16 43 1 100
  16 44 1 100
  16 45 1 100
  16 46 1 100
  16 47 1 100
  16 48 1 100
  16 49 1 100
  16 50 1 100
  16 51 1 100
  16 52 1 100
  16 53 1 100
  16 54 1 100
  16 55 1 100
  16 56 1 100
  16 57 1 100
  16 58 1 100
  16 59 1 100
  16 60 1 100
  16 61 1 100
  16 62 1 100
  16 63 1 100
  16 64 1 100
  16 65 1 100
  17 1 1 100
  17 2 1 100
  17 3 1 100
  17 4 1 100
  17 5 1 100
  17 6 1 100
  17 7 1 100
  17 8 1 100
  17 9 1 100
  17 10 1 100
  17 11 1 100
  17 12 1 100
  17 13 1 100
  17 14 1 100
  17 15 1 100
  17 16 1 100
  17 17 1 100
  17 18 1 100
  17 19 1 100
  17 20 1 100
  17 21 1 100
  17 22 1 100
  17 23 1 100
  17 24 1 100
  17 25 1 100
  17 26 1 100
  17 27 1 100
  17 28 1 100
  17 29 1 100
  17 30 1 100
  17 31 1 100
  17 32 1 100
  17 33 1 100
  17 34 1 100
  17 35 1 100
  17 36 1 100
  17 37 1 100
  17 38 1 100
  17 39 1 100
  17 40 1 100
  17 41 1 100
  17 42 1 100
  17 43 1 100
  17 44 1 100
  17 45 1 100
  17 46 1 100
  17 47 1 100
  17 48 1 100
  17 49 1 100
  17 50 1 100
  17 51 1 100
  17 52 1 100
  17 53 1 100
  17 54 1 100
  17 55 1 100
  17 56 1 100
  17 57 1 100
  17 58 1 100
  17 59 1 100
  17 60 1 100
  17 61 1 100
  17 62 1 100
  17 63 1 100
  17 64 1 100
  17 65 1 100
  18 1 1 100
  18 2 1 100
  18 3 1 100
  18 4 1 100
  18 5 1 100
  18 6 1 100
  18 7 1 100
  18 8 1 100
  18 9 1 100
  18 10 1 100
  18 11 1 100
  18 12 1 100
  18 13 1 100
  18 14 1 100
  18 15 1 100
  18 16 1 100
  18 17 1 100
  18 18 1 100
  18 19 1 100
  18 20 1 100
  18 21 1 100
  18 22 1 100
  18 23 1 100
  18 24 1 100
  18 25 1 100
  18 26 1 100
  18 27 1 100
  18 28 1 100
  18 29 1 100
  18 30 1 100
  18 31 1 100
  18 32 1 100
  18 33 1 100
  18 34 1 100
  18 35 1 100
  18 36 1 100
  18 37 1 100
  18 38 1 100
  18 39 1 100
  18 40 1 100
  18 41 1 100
  18 42 1 100
  18 43 1 100
  18 44 1 100
  18 45 1 100
  18 46 1 100
  18 47 1 100
  18 48 1 100
  18 49 1 100
  18 50 1 100
  18 51 1 100
  18 52 1 100
  18 53 1 100
  18 54 1 100
  18 55 1 100
  18 56 1 100
  18 57 1 100
  18 58 1 100
  18 59 1 100
  18 60 1 100
  18 61 1 100
  18 62 1 100
  18 63 1 100
  18 64 1 100
  18 65 1 100
  19 1 1 100
  19 2 1 100
  19 3 1 100
  19 4 1 100
  19 5 1 100
  19 6 1 100
  19 7 1 100
  19 8 1 100
  19 9 1 100
  19 10 1 100
  19 11 1 100
  19 12 1 100
  19 13 1 100
  19 14 1 100
  19 15 1 100
  19 16 1 100
  19 17 1 100
  19 18 1 100
  19 19 1 100
  19 20 1 100
  19 21 1 100
  19 22 1 100
  19 23 1 100
  19 24 1 100
  19 25 1 100
  19 26 1 100
  19 27 1 100
  19 28 1 100
  19 29 1 100
  19 30 1 100
  19 31 1 100
  19 32 1 100
  19 33 1 100
  19 34 1 100
  19 35 1 100
  19 36 1 100
  19 37 1 100
  19 38 1 100
  19 39 1 100
  19 40 1 100
  19 41 1 100
  19 42 1 100
  19 43 1 100
  19 44 1 100
  19 45 1 100
  19 46 1 100
  19 47 1 100
  19 48 1 100
  19 49 1 100
  19 50 1 100
  19 51 1 100
  19 52 1 100
  19 53 1 100
  19 54 1 100
  19 55 1 100
  19 56 1 100
  19 57 1 100
  19 58 1 100
  19 59 1 100
  19 60 1 100
  19 61 1 100
  19 62 1 100
  19 63 1 100
  19 64 1 100
  19 65 1 100
  20 1 1 100
  20 2 1 100
  20 3 1 100
  20 4 1 100
  20 5 1 100
  20 6 1 100
  20 7 1 100
  20 8 1 100
  20 9 1 100
  20 10 1 100
  20 11 1 100
  20 12 1 100
  20 13 1 100
  20 14 1 100
  20 15 1 100
  20 16 1 100
  20 17 1 100
  20 18 1 100
  20 19 1 100
  20 20 1 100
  20 21 1 100
  20 22 1 100
  20 23 1 100
  20 24 1 100
  20 25 1 100
  20 26 1 100
  20 27 1 100
  20 28 1 100
  20 29 1 100
  20 30 1 100
  20 31 1 100
  20 32 1 100
  20 33 1 100
  20 34 1 100
  20 35 1 100
  20 36 1 100
  20 37 1 100
  20 38 1 100
  20 39 1 100
  20 40 1 100
  20 41 1 100
  20 42 1 100
  20 43 1 100
  20 44 1 100
  20 45 1 100
  20 46 1 100
  20 47 1 100
  20 48 1 100
  20 49 1 100
  20 50 1 100
  20 51 1 100
  20 52 1 100
  20 53 1 100
  20 54 1 100
  20 55 1 100
  20 56 1 100
  20 57 1 100
  20 58 1 100
  20 59 1 100
  20 60 1 100
  20 61 1 100
  20 62 1 100
  20 63 1 100
  20 64 1 100
  20 65 1 100
  21 1 1 100
  21 2 1 100
  21 3 1 100
  21 4 1 100
  21 5 1 100
  21 6 1 100
  21 7 1 100
  21 8 1 100
  21 9 1 100
  21 10 1 100
  21 11 1 100
  21 12 1 100
  21 13 1 100
  21 14 1 100
  21 15 1 100
  21 16 1 100
  21 17 1 100
  21 18 1 100
  21 19 1 100
  21 20 1 100
  21 21 1 100
  21 22 1 100
  21 23 1 100
  21 24 1 100
  21 25 1 100
  21 26 1 100
  21 27 1 100
  21 28 1 100
  21 29 1 100
  21 30 1 100
  21 31 1 100
  21 32 1 100
  21 33 1 100
  21 34 1 100
  21 35 1 100
  21 36 1 100
  21 37 1 100
  21 38 1 100
  21 39 1 100
  21 40 1 100
  21 41 1 100
  21 42 1 100
  21 43 1 100
  21 44 1 100
  21 45 1 100
  21 46 1 100
  21 47 1 100
  21 48 1 100
  21 49 1 100
  21 50 1 100
  21 51 1 100
  21 52 1 100
  21 53 1 100
  21 54 1 100
  21 55 1 100
  21 56 1 100
  21 57 1 100
  21 58 1 100
  21 59 1 100
  21 60 1 100
  21 61 1 100
  21 62 1 100
  21 63 1 100
  21 64 1 100
  21 65 1 100
  22 1 1 100
  22 2 1 100
  22 3 1 100
  22 4 1 100
  22 5 1 100
  22 6 1 100
  22 7 1 100
  22 8 1 100
  22 9 1 100
  22 10 1 100
  22 11 1 100
  22 12 1 100
  22 13 1 100
  22 14 1 100
  22 15 1 100
  22 16 1 100
  22 17 1 100
  22 18 1 100
  22 19 1 100
  22 20 1 100
  22 21 1 100
  22 22 1 100
  22 23 1 100
  22 24 1 100
  22 25 1 100
  22 26 1 100
  22 27 1 100
  22 28 1 100
  22 29 1 100
  22 30 1 100
  22 31 1 100
  22 32 1 100
  22 33 1 100
  22 34 1 100
  22 35 1 100
  22 36 1 100
  22 37 1 100
  22 38 1 100
  22 39 1 100
  22 40 1 100
  22 41 1 100
  22 42 1 100
  22 43 1 100
  22 44 1 100
  22 45 1 100
  22 46 1 100
  22 47 1 100
  22 48 1 100
  22 49 1 100
  22 50 1 100
  22 51 1 100
  22 52 1 100
  22 53 1 100
  22 54 1 100
  22 55 1 100
  22 56 1 100
  22 57 1 100
  22 58 1 100
  22 59 1 100
  22 60 1 100
  22 61 1 100
  22 62 1 100
  22 63 1 100
  22 64 1 100
  22 65 1 100
  23 1 1 100
  23 2 1 100
  23 3 1 100
  23 4 1 100
  23 5 1 100
  23 6 1 100
  23 7 1 100
  23 8 1 100
  23 9 1 100
  23 10 1 100
  23 11 1 100
  23 12 1 100
  23 13 1 100
  23 14 1 100
  23 15 1 100
  23 16 1 100
  23 17 1 100
  23 18 1 100
  23 19 1 100
  23 20 1 100
  23 21 1 100
  23 22 1 100
  23 23 1 100
  23 24 1 100
  23 25 1 100
  23 26 1 100
  23 27 1 100
  23 28 1 100
  23 29 1 100
  23 30 1 100
  23 31 1 100
  23 32 1 100
  23 33 1 100
  23 34 1 100
  23 35 1 100
  23 36 1 100
  23 37 1 100
  23 38 1 100
  23 39 1 100
  23 40 1 100
  23 41 1 100
  23 42 1 100
  23 43 1 100
  23 44 1 100
  23 45 1 100
  23 46 1 100
  23 47 1 100
  23 48 1 100
  23 49 1 100
  23 50 1 100
  23 51 1 100
  23 52 1 100
  23 53 1 100
  23 54 1 100
  23 55 1 100
  23 56 1 100
  23 57 1 100
  23 58 1 100
  23 59 1 100
  23 60 1 100
  23 61 1 100
  23 62 1 100
  23 63 1 100
  23 64 1 100
  23 65 1 100
  24 1 1 100
  24 2 1 100
  24 3 1 100
  24 4 1 100
  24 5 1 100
  24 6 1 100
  24 7 1 100
  24 8 1 100
  24 9 1 100
  24 10 1 100
  24 11 1 100
  24 12 1 100
  24 13 1 100
  24 14 1 100
  24 15 1 100
  24 16 1 100
  24 17 1 100
  24 18 1 100
  24 19 1 100
  24 20 1 100
  24 21 1 100
  24 22 1 100
  24 23 1 100
  24 24 1 100
  24 25 1 100
  24 26 1 100
  24 27 1 100
  24 28 1 100
  24 29 1 100
  24 30 1 100
  24 31 1 100
  24 32 1 100
  24 33 1 100
  24 34 1 100
  24 35 1 100
  24 36 1 100
  24 37 1 100
  24 38 1 100
  24 39 1 100
  24 40 1 100
  24 41 1 100
  24 42 1 100
  24 43 1 100
  24 44 1 100
  24 45 1 100
  24 46 1 100
  24 47 1 100
  24 48 1 100
  24 49 1 100
  24 50 1 100
  24 51 1 100
  24 52 1 100
  24 53 1 100
  24 54 1 100
  24 55 1 100
  24 56 1 100
  24 57 1 100
  24 58 1 100
  24 59 1 100
  24 60 1 100
  24 61 1 100
  24 62 1 100
  24 63 1 100
  24 64 1 100
  24 65 1 100
  25 1 1 100
  25 2 1 100
  25 3 1 100
  25 4 1 100
  25 5 1 100
  25 6 1 100
  25 7 1 100
  25 8 1 100
  25 9 1 100
  25 10 1 100
  25 11 1 100
  25 12 1 100
  25 13 1 100
  25 14 1 100
  25 15 1 100
  25 16 1 100
  25 17 1 100
  25 18 1 100
  25 19 1 100
  25 20 1 100
  25 21 1 100
  25 22 1 100
  25 23 1 100
  25 24 1 100
  25 25 1 100
  25 26 1 100
  25 27 1 100
  25 28 1 100
  25 29 1 100
  25 30 1 100
  25 31 1 100
  25 32 1 100
  25 33 1 100
  25 34 1 100
  25 35 1 100
  25 36 1 100
  25 37 1 100
  25 38 1 100
  25 39 1 100
  25 40 1 100
  25 41 1 100
  25 42 1 100
  25 43 1 100
  25 44 1 100
  25 45 1 100
  25 46 1 100
  25 47 1 100
  25 48 1 100
  25 49 1 100
  25 50 1 100
  25 51 1 100
  25 52 1 100
  25 53 1 100
  25 54 1 100
  25 55 1 100
  25 56 1 100
  25 57 1 100
  25 58 1 100
  25 59 1 100
  25 60 1 100
  25 61 1 100
  25 62 1 100
  25 63 1 100
  25 64 1 100
  25 65 1 100
  26 1 1 100
  26 2 1 100
  26 3 1 100
  26 4 1 100
  26 5 1 100
  26 6 1 100
  26 7 1 100
  26 8 1 100
  26 9 1 100
  26 10 1 100
  26 11 1 100
  26 12 1 100
  26 13 1 100
  26 14 1 100
  26 15 1 100
  26 16 1 100
  26 17 1 100
  26 18 1 100
  26 19 1 100
  26 20 1 100
  26 21 1 100
  26 22 1 100
  26 23 1 100
  26 24 1 100
  26 25 1 100
  26 26 1 100
  26 27 1 100
  26 28 1 100
  26 29 1 100
  26 30 1 100
  26 31 1 100
  26 32 1 100
  26 33 1 100
  26 34 1 100
  26 35 1 100
  26 36 1 100
  26 37 1 100
  26 38 1 100
  26 39 1 100
  26 40 1 100
  26 41 1 100
  26 42 1 100
  26 43 1 100
  26 44 1 100
  26 45 1 100
  26 46 1 100
  26 47 1 100
  26 48 1 100
  26 49 1 100
  26 50 1 100
  26 51 1 100
  26 52 1 100
  26 53 1 100
  26 54 1 100
  26 55 1 100
  26 56 1 100
  26 57 1 100
  26 58 1 100
  26 59 1 100
  26 60 1 100
  26 61 1 100
  26 62 1 100
  26 63 1 100
  26 64 1 100
  26 65 1 100
  27 1 1 100
  27 2 1 100
  27 3 1 100
  27 4 1 100
  27 5 1 100
  27 6 1 100
  27 7 1 100
  27 8 1 100
  27 9 1 100
  27 10 1 100
  27 11 1 100
  27 12 1 100
  27 13 1 100
  27 14 1 100
  27 15 1 100
  27 16 1 100
  27 17 1 100
  27 18 1 100
  27 19 1 100
  27 20 1 100
  27 21 1 100
  27 22 1 100
  27 23 1 100
  27 24 1 100
  27 25 1 100
  27 26 1 100
  27 27 1 100
  27 28 1 100
  27 29 1 100
  27 30 1 100
  27 31 1 100
  27 32 1 100
  27 33 1 100
  27 34 1 100
  27 35 1 100
  27 36 1 100
  27 37 1 100
  27 38 1 100
  27 39 1 100
  27 40 1 100
  27 41 1 100
  27 42 1 100
  27 43 1 100
  27 44 1 100
  27 45 1 100
  27 46 1 100
  27 47 1 100
  27 48 1 100
  27 49 1 100
  27 50 1 100
  27 51 1 100
  27 52 1 100
  27 53 1 100
  27 54 1 100
  27 55 1 100
  27 56 1 100
  27 57 1 100
  27 58 1 100
  27 59 1 100
  27 60 1 100
  27 61 1 100
  27 62 1 100
  27 63 1 100
  27 64 1 100
  27 65 1 100
  28 1 1 100
  28 2 1 100
  28 3 1 100
  28 4 1 100
  28 5 1 100
  28 6 1 100
  28 7 1 100
  28 8 1 100
  28 9 1 100
  28 10 1 100
  28 11 1 100
  28 12 1 100
  28 13 1 100
  28 14 1 100
  28 15 1 100
  28 16 1 100
  28 17 1 100
  28 18 1 100
  28 19 1 100
  28 20 1 100
  28 21 1 100
  28 22 1 100
  28 23 1 100
  28 24 1 100
  28 25 1 100
  28 26 1 100
  28 27 1 100
  28 28 1 100
  28 29 1 100
  28 30 1 100
  28 31 1 100
  28 32 1 100
  28 33 1 100
  28 34 1 100
  28 35 1 100
  28 36 1 100
  28 37 1 100
  28 38 1 100
  28 39 1 100
  28 40 1 100
  28 41 1 100
  28 42 1 100
  28 43 1 100
  28 44 1 100
  28 45 1 100
  28 46 1 100
  28 47 1 100
  28 48 1 100
  28 49 1 100
  28 50 1 100
  28 51 1 100
  28 52 1 100
  28 53 1 100
  28 54 1 100
  28 55 1 100
  28 56 1 100
  28 57 1 100
  28 58 1 100
  28 59 1 100
  28 60 1 100
  28 61 1 100
  28 62 1 100
  28 63 1 100
  28 64 1 100
  28 65 1 100
  29 1 1 100
  29 2 1 100
  29 3 1 100
  29 4 1 100
  29 5 1 100
  29 6 1 100
  29 7 1 100
  29 8 1 100
  29 9 1 100
  29 10 1 100
  29 11 1 100
  29 12 1 100
  29 13 1 100
  29 14 1 100
  29 15 1 100
  29 16 1 100
  29 17 1 100
  29 18 1 100
  29 19 1 100
  29 20 1 100
  29 21 1 100
  29 22 1 100
  29 23 1 100
  29 24 1 100
  29 25 1 100
  29 26 1 100
  29 27 1 100
  29 28 1 100
  29 29 1 100
  29 30 1 100
  29 31 1 100
  29 32 1 100
  29 33 1 100
  29 34 1 100
  29 35 1 100
  29 36 1 100
  29 37 1 100
  29 38 1 100
  29 39 1 100
  29 40 1 100
  29 41 1 100
  29 42 1 100
  29 43 1 100
  29 44 1 100
  29 45 1 100
  29 46 1 100
  29 47 1 100
  29 48 1 100
  29 49 1 100
  29 50 1 100
  29 51 1 100
  29 52 1 100
  29 53 1 100
  29 54 1 100
  29 55 1 100
  29 56 1 100
  29 57 1 100
  29 58 1 100
  29 59 1 100
  29 60 1 100
  29 61 1 100
  29 62 1 100
  29 63 1 100
  29 64 1 100
  29 65 1 100
  30 1 1 100
  30 2 1 100
  30 3 1 100
  30 4 1 100
  30 5 1 100
  30 6 1 100
  30 7 1 100
  30 8 1 100
  30 9 1 100
  30 10 1 100
  30 11 1 100
  30 12 1 100
  30 13 1 100
  30 14 1 100
  30 15 1 100
  30 16 1 100
  30 17 1 100
  30 18 1 100
  30 19 1 100
  30 20 1 100
  30 21 1 100
  30 22 1 100
  30 23 1 100
  30 24 1 100
  30 25 1 100
  30 26 1 100
  30 27 1 100
  30 28 1 100
  30 29 1 100
  30 30 1 100
  30 31 1 100
  30 32 1 100
  30 33 1 100
  30 34 1 100
  30 35 1 100
  30 36 1 100
  30 37 1 100
  30 38 1 100
  30 39 1 100
  30 40 1 100
  30 41 1 100
  30 42 1 100
  30 43 1 100
  30 44 1 100
  30 45 1 100
  30 46 1 100
  30 47 1 100
  30 48 1 100
  30 49 1 100
  30 50 1 100
  30 51 1 100
  30 52 1 100
  30 53 1 100
  30 54 1 100
  30 55 1 100
  30 56 1 100
  30 57 1 100
  30 58 1 100
  30 59 1 100
  30 60 1 100
  30 61 1 100
  30 62 1 100
  30 63 1 100
  30 64 1 100
  30 65 1 100
  31 1 1 100
  31 2 1 100
  31 3 1 100
  31 4 1 100
  31 5 1 100
  31 6 1 100
  31 7 1 100
  31 8 1 100
  31 9 1 100
  31 10 1 100
  31 11 1 100
  31 12 1 100
  31 13 1 100
  31 14 1 100
  31 15 1 100
  31 16 1 100
  31 17 1 100
  31 18 1 100
  31 19 1 100
  31 20 1 100
  31 21 1 100
  31 22 1 100
  31 23 1 100
  31 24 1 100
  31 25 1 100
  31 26 1 100
  31 27 1 100
  31 28 1 100
  31 29 1 100
  31 30 1 100
  31 31 1 100
  31 32 1 100
  31 33 1 100
  31 34 1 100
  31 35 1 100
  31 36 1 100
  31 37 1 100
  31 38 1 100
  31 39 1 100
  31 40 1 100
  31 41 1 100
  31 42 1 100
  31 43 1 100
  31 44 1 100
  31 45 1 100
  31 46 1 100
  31 47 1 100
  31 48 1 100
  31 49 1 100
  31 50 1 100
  31 51 1 100
  31 52 1 100
  31 53 1 100
  31 54 1 100
  31 55 1 100
  31 56 1 100
  31 57 1 100
  31 58 1 100
  31 59 1 100
  31 60 1 100
  31 61 1 100
  31 62 1 100
  31 63 1 100
  31 64 1 100
  31 65 1 100
  32 1 1 100
  32 2 1 100
  32 3 1 100
  32 4 1 100
  32 5 1 100
  32 6 1 100
  32 7 1 100
  32 8 1 100
  32 9 1 100
  32 10 1 100
  32 11 1 100
  32 12 1 100
  32 13 1 100
  32 14 1 100
  32 15 1 100
  32 16 1 100
  32 17 1 100
  32 18 1 100
  32 19 1 100
  32 20 1 100
  32 21 1 100
  32 22 1 100
  32 23 1 100
  32 24 1 100
  32 25 1 100
  32 26 1 100
  32 27 1 100
  32 28 1 100
  32 29 1 100
  32 30 1 100
  32 31 1 100
  32 32 1 100
  32 33 1 100
  32 34 1 100
  32 35 1 100
  32 36 1 100
  32 37 1 100
  32 38 1 100
  32 39 1 100
  32 40 1 100
  32 41 1 100
  32 42 1 100
  32 43 1 100
  32 44 1 100
  32 45 1 100
  32 46 1 100
  32 47 1 100
  32 48 1 100
  32 49 1 100
  32 50 1 100
  32 51 1 100
  32 52 1 100
  32 53 1 100
  32 54 1 100
  32 55 1 100
  32 56 1 100
  32 57 1 100
  32 58 1 100
  32 59 1 100
  32 60 1 100
  32 61 1 100
  32 62 1 100
  32 63 1 100
  32 64 1 100
  32 65 1 100
  33 1 1 100
  33 2 1 100
  33 3 1 100
  33 4 1 100
  33 5 1 100
  33 6 1 100
  33 7 1 100
  33 8 1 100
  33 9 1 100
  33 10 1 100
  33 11 1 100
  33 12 1 100
  33 13 1 100
  33 14 1 100
  33 15 1 100
  33 16 1 100
  33 17 1 100
  33 18 1 100
  33 19 1 100
  33 20 1 100
  33 21 1 100
  33 22 1 100
  33 23 1 100
  33 24 1 100
  33 25 1 100
  33 26 1 100
  33 27 1 100
  33 28 1 100
  33 29 1 100
  33 30 1 100
  33 31 1 100
  33 32 1 100
  33 33 1 100
  33 34 1 100
  33 35 1 100
  33 36 1 100
  33 37 1 100
  33 38 1 100
  33 39 1 100
  33 40 1 100
  33 41 1 100
  33 42 1 100
  33 43 1 100
  33 44 1 100
  33 45 1 100
  33 46 1 100
  33 47 1 100
  33 48 1 100
  33 49 1 100
  33 50 1 100
  33 51 1 100
  33 52 1 100
  33 53 1 100
  33 54 1 100
  33 55 1 100
  33 56 1 100
  33 57 1 100
  33 58 1 100
  33 59 1 100
  33 60 1 100
  33 61 1 100
  33 62 1 100
  33 63 1 100
  33 64 1 100
  33 65 1 100
  34 1 1 100
  34 2 1 100
  34 3 1 100
  34 4 1 100
  34 5 1 100
  34 6 1 100
  34 7 1 100
  34 8 1 100
  34 9 1 100
  34 10 1 100
  34 11 1 100
  34 12 1 100
  34 13 1 100
  34 14 1 100
  34 15 1 100
  34 16 1 100
  34 17 1 100
  34 18 1 100
  34 19 1 100
  34 20 1 100
  34 21 1 100
  34 22 1 100
  34 23 1 100
  34 24 1 100
  34 25 1 100
  34 26 1 100
  34 27 1 100
  34 28 1 100
  34 29 1 100
  34 30 1 100
  34 31 1 100
  34 32 1 100
  34 33 1 100
  34 34 1 100
  34 35 1 100
  34 36 1 100
  34 37 1 100
  34 38 1 100
  34 39 1 100
  34 40 1 100
  34 41 1 100
  34 42 1 100
  34 43 1 100
  34 44 1 100
  34 45 1 100
  34 46 1 100
  34 47 1 100
  34 48 1 100
  34 49 1 100
  34 50 1 100
  34 51 1 100
  34 52 1 100
  34 53 1 100
  34 54 1 100
  34 55 1 100
  34 56 1 100
  34 57 1 100
  34 58 1 100
  34 59 1 100
  34 60 1 100
  34 61 1 100
  34 62 1 100
  34 63 1 100
  34 64 1 100
  34 65 1 100
  35 1 1 100
  35 2 1 100
  35 3 1 100
  35 4 1 100
  35 5 1 100
  35 6 1 100
  35 7 1 100
  35 8 1 100
  35 9 1 100
  35 10 1 100
  35 11 1 100
  35 12 1 100
  35 13 1 100
  35 14 1 100
  35 15 1 100
  35 16 1 100
  35 17 1 100
  35 18 1 100
  35 19 1 100
  35 20 1 100
  35 21 1 100
  35 22 1 100
  35 23 1 100
  35 24 1 100
  35 25 1 100
  35 26 1 100
  35 27 1 100
  35 28 1 100
  35 29 1 100
  35 30 1 100
  35 31 1 100
  35 32 1 100
  35 33 1 100
  35 34 1 100
  35 35 1 100
  35 36 1 100
  35 37 1 100
  35 38 1 100
  35 39 1 100
  35 40 1 100
  35 41 1 100
  35 42 1 100
  35 43 1 100
  35 44 1 100
  35 45 1 100
  35 46 1 100
  35 47 1 100
  35 48 1 100
  35 49 1 100
  35 50 1 100
  35 51 1 100
  35 52 1 100
  35 53 1 100
  35 54 1 100
  35 55 1 100
  35 56 1 100
  35 57 1 100
  35 58 1 100
  35 59 1 100
  35 60 1 100
  35 61 1 100
  35 62 1 100
  35 63 1 100
  35 64 1 100
  35 65 1 100
  36 1 1 100
  36 2 1 100
  36 3 1 100
  36 4 1 100
  36 5 1 100
  36 6 1 100
  36 7 1 100
  36 8 1 100
  36 9 1 100
  36 10 1 100
  36 11 1 100
  36 12 1 100
  36 13 1 100
  36 14 1 100
  36 15 1 100
  36 16 1 100
  36 17 1 100
  36 18 1 100
  36 19 1 100
  36 20 1 100
  36 21 1 100
  36 22 1 100
  36 23 1 100
  36 24 1 100
  36 25 1 100
  36 26 1 100
  36 27 1 100
  36 28 1 100
  36 29 1 100
  36 30 1 100
  36 31 1 100
  36 32 1 100
  36 33 1 100
  36 34 1 100
  36 35 1 100
  36 36 1 100
  36 37 1 100
  36 38 1 100
  36 39 1 100
  36 40 1 100
  36 41 1 100
  36 42 1 100
  36 43 1 100
  36 44 1 100
  36 45 1 100
  36 46 1 100
  36 47 1 100
  36 48 1 100
  36 49 1 100
  36 50 1 100
  36 51 1 100
  36 52 1 100
  36 53 1 100
  36 54 1 100
  36 55 1 100
  36 56 1 100
  36 57 1 100
  36 58 1 100
  36 59 1 100
  36 60 1 100
  36 61 1 100
  36 62 1 100
  36 63 1 100
  36 64 1 100
  36 65 1 100
  37 1 1 100
  37 2 1 100
  37 3 1 100
  37 4 1 100
  37 5 1 100
  37 6 1 100
  37 7 1 100
  37 8 1 100
  37 9 1 100
  37 10 1 100
  37 11 1 100
  37 12 1 100
  37 13 1 100
  37 14 1 100
  37 15 1 100
  37 16 1 100
  37 17 1 100
  37 18 1 100
  37 19 1 100
  37 20 1 100
  37 21 1 100
  37 22 1 100
  37 23 1 100
  37 24 1 100
  37 25 1 100
  37 26 1 100
  37 27 1 100
  37 28 1 100
  37 29 1 100
  37 30 1 100
  37 31 1 100
  37 32 1 100
  37 33 1 100
  37 34 1 100
  37 35 1 100
  37 36 1 100
  37 37 1 100
  37 38 1 100
  37 39 1 100
  37 40 1 100
  37 41 1 100
  37 42 1 100
  37 43 1 100
  37 44 1 100
  37 45 1 100
  37 46 1 100
  37 47 1 100
  37 48 1 100
  37 49 1 100
  37 50 1 100
  37 51 1 100
  37 52 1 100
  37 53 1 100
  37 54 1 100
  37 55 1 100
  37 56 1 100
  37 57 1 100
  37 58 1 100
  37 59 1 100
  37 60 1 100
  37 61 1 100
  37 62 1 100
  37 63 1 100
  37 64 1 100
  37 65 1 100
  38 1 1 100
  38 2 1 100
  38 3 1 100
  38 4 1 100
  38 5 1 100
  38 6 1 100
  38 7 1 100
  38 8 1 100
  38 9 1 100
  38 10 1 100
  38 11 1 100
  38 12 1 100
  38 13 1 100
  38 14 1 100
  38 15 1 100
  38 16 1 100
  38 17 1 100
  38 18 1 100
  38 19 1 100
  38 20 1 100
  38 21 1 100
  38 22 1 100
  38 23 1 100
  38 24 1 100
  38 25 1 100
  38 26 1 100
  38 27 1 100
  38 28 1 100
  38 29 1 100
  38 30 1 100
  38 31 1 100
  38 32 1 100
  38 33 1 100
  38 34 1 100
  38 35 1 100
  38 36 1 100
  38 37 1 100
  38 38 1 100
  38 39 1 100
  38 40 1 100
  38 41 1 100
  38 42 1 100
  38 43 1 100
  38 44 1 100
  38 45 1 100
  38 46 1 100
  38 47 1 100
  38 48 1 100
  38 49 1 100
  38 50 1 100
  38 51 1 100
  38 52 1 100
  38 53 1 100
  38 54 1 100
  38 55 1 100
  38 56 1 100
  38 57 1 100
  38 58 1 100
  38 59 1 100
  38 60 1 100
  38 61 1 100
  38 62 1 100
  38 63 1 100
  38 64 1 100
  38 65 1 100
  39 1 1 100
  39 2 1 100
  39 3 1 100
  39 4 1 100
  39 5 1 100
  39 6 1 100
  39 7 1 100
  39 8 1 100
  39 9 1 100
  39 10 1 100
  39 11 1 100
  39 12 1 100
  39 13 1 100
  39 14 1 100
  39 15 1 100
  39 16 1 100
  39 17 1 100
  39 18 1 100
  39 19 1 100
  39 20 1 100
  39 21 1 100
  39 22 1 100
  39 23 1 100
  39 24 1 100
  39 25 1 100
  39 26 1 100
  39 27 1 100
  39 28 1 100
  39 29 1 100
  39 30 1 100
  39 31 1 100
  39 32 1 100
  39 33 1 100
  39 34 1 100
  39 35 1 100
  39 36 1 100
  39 37 1 100
  39 38 1 100
  39 39 1 100
  39 40 1 100
  39 41 1 100
  39 42 1 100
  39 43 1 100
  39 44 1 100
  39 45 1 100
  39 46 1 100
  39 47 1 100
  39 48 1 100
  39 49 1 100
  39 50 1 100
  39 51 1 100
  39 52 1 100
  39 53 1 100
  39 54 1 100
  39 55 1 100
  39 56 1 100
  39 57 1 100
  39 58 1 100
  39 59 1 100
  39 60 1 100
  39 61 1 100
  39 62 1 100
  39 63 1 100
  39 64 1 100
  39 65 1 100
  40 1 1 100
  40 2 1 100
  40 3 1 100
  40 4 1 100
  40 5 1 100
  40 6 1 100
  40 7 1 100
  40 8 1 100
  40 9 1 100
  40 10 1 100
  40 11 1 100
  40 12 1 100
  40 13 1 100
  40 14 1 100
  40 15 1 100
  40 16 1 100
  40 17 1 100
  40 18 1 100
  40 19 1 100
  40 20 1 100
  40 21 1 100
  40 22 1 100
  40 23 1 100
  40 24 1 100
  40 25 1 100
  40 26 1 100
  40 27 1 100
  40 28 1 100
  40 29 1 100
  40 30 1 100
  40 31 1 100
  40 32 1 100
  40 33 1 100
  40 34 1 100
  40 35 1 100
  40 36 1 100
  40 37 1 100
  40 38 1 100
  40 39 1 100
  40 40 1 100
  40 41 1 100
  40 42 1 100
  40 43 1 100
  40 44 1 100
  40 45 1 100
  40 46 1 100
  40 47 1 100
  40 48 1 100
  40 49 1 100
  40 50 1 100
  40 51 1 100
  40 52 1 100
  40 53 1 100
  40 54 1 100
  40 55 1 100
  40 56 1 100
  40 57 1 100
  40 58 1 100
  40 59 1 100
  40 60 1 100
  40 61 1 100
  40 62 1 100
  40 63 1 100
  40 64 1 100
  40 65 1 100
  41 1 1 100
  41 2 1 100
  41 3 1 100
  41 4 1 100
  41 5 1 100
  41 6 1 100
  41 7 1 100
  41 8 1 100
  41 9 1 100
  41 10 1 100
  41 11 1 100
  41 12 1 100
  41 13 1 100
  41 14 1 100
  41 15 1 100
  41 16 1 100
  41 17 1 100
  41 18 1 100
  41 19 1 100
  41 20 1 100
  41 21 1 100
  41 22 1 100
  41 23 1 100
  41 24 1 100
  41 25 1 100
  41 26 1 100
  41 27 1 100
  41 28 1 100
  41 29 1 100
  41 30 1 100
  41 31 1 100
  41 32 1 100
  41 33 1 100
  41 34 1 100
  41 35 1 100
  41 36 1 100
  41 37 1 100
  41 38 1 100
  41 39 1 100
  41 40 1 100
  41 41 1 100
  41 42 1 100
  41 43 1 100
  41 44 1 100
  41 45 1 100
  41 46 1 100
  41 47 1 100
  41 48 1 100
  41 49 1 100
  41 50 1 100
  41 51 1 100
  41 52 1 100
  41 53 1 100
  41 54 1 100
  41 55 1 100
  41 56 1 100
  41 57 1 100
  41 58 1 100
  41 59 1 100
  41 60 1 100
  41 61 1 100
  41 62 1 100
  41 63 1 100
  41 64 1 100
  41 65 1 100
  42 1 1 100
  42 2 1 100
  42 3 1 100
  42 4 1 100
  42 5 1 100
  42 6 1 100
  42 7 1 100
  42 8 1 100
  42 9 1 100
  42 10 1 100
  42 11 1 100
  42 12 1 100
  42 13 1 100
  42 14 1 100
  42 15 1 100
  42 16 1 100
  42 17 1 100
  42 18 1 100
  42 19 1 100
  42 20 1 100
  42 21 1 100
  42 22 1 100
  42 23 1 100
  42 24 1 100
  42 25 1 100
  42 26 1 100
  42 27 1 100
  42 28 1 100
  42 29 1 100
  42 30 1 100
  42 31 1 100
  42 32 1 100
  42 33 1 100
  42 34 1 100
  42 35 1 100
  42 36 1 100
  42 37 1 100
  42 38 1 100
  42 39 1 100
  42 40 1 100
  42 41 1 100
  42 42 1 100
  42 43 1 100
  42 44 1 100
  42 45 1 100
  42 46 1 100
  42 47 1 100
  42 48 1 100
  42 49 1 100
  42 50 1 100
  42 51 1 100
  42 52 1 100
  42 53 1 100
  42 54 1 100
  42 55 1 100
  42 56 1 100
  42 57 1 100
  42 58 1 100
  42 59 1 100
  42 60 1 100
  42 61 1 100
  42 62 1 100
  42 63 1 100
  42 64 1 100
  42 65 1 100
  43 1 1 100
  43 2 1 100
  43 3 1 100
  43 4 1 100
  43 5 1 100
  43 6 1 100
  43 7 1 100
  43 8 1 100
  43 9 1 100
  43 10 1 100
  43 11 1 100
  43 12 1 100
  43 13 1 100
  43 14 1 100
  43 15 1 100
  43 16 1 100
  43 17 1 100
  43 18 1 100
  43 19 1 100
  43 20 1 100
  43 21 1 100
  43 22 1 100
  43 23 1 100
  43 24 1 100
  43 25 1 100
  43 26 1 100
  43 27 1 100
  43 28 1 100
  43 29 1 100
  43 30 1 100
  43 31 1 100
  43 32 1 100
  43 33 1 100
  43 34 1 100
  43 35 1 100
  43 36 1 100
  43 37 1 100
  43 38 1 100
  43 39 1 100
  43 40 1 100
  43 41 1 100
  43 42 1 100
  43 43 1 100
  43 44 1 100
  43 45 1 100
  43 46 1 100
  43 47 1 100
  43 48 1 100
  43 49 1 100
  43 50 1 100
  43 51 1 100
  43 52 1 100
  43 53 1 100
  43 54 1 100
  43 55 1 100
  43 56 1 100
  43 57 1 100
  43 58 1 100
  43 59 1 100
  43 60 1 100
  43 61 1 100
  43 62 1 100
  43 63 1 100
  43 64 1 100
  43 65 1 100
  44 1 1 100
  44 2 1 100
  44 3 1 100
  44 4 1 100
  44 5 1 100
  44 6 1 100
  44 7 1 100