# File generated by Flopy version 3.9.1 on 01/29/2025 at 17:29:20.
BEGIN options
END options

BEGIN griddata
  strt
    CONSTANT       1.00000000
END griddata

