MODPATH_TIMESERIES_FILE         7         2
    2   0.0000000000E+00  0.0000000000E+00  0.0000000000E+00  0.0000000000E+00
END HEADER
       0       1  0.0000000000E+00         1    1         1     12721  0.1666666667E+00  0.1666666667E+00  0.1666666667E+00  0.1802500000E+03  0.7375000000E+02 -0.7492639942E+01         2
       0       1  0.0000000000E+00         2    1         2     12721  0.5000000000E+00  0.1666666667E+00  0.1666666667E+00  0.1807500000E+03  0.7375000000E+02 -0.7492639942E+01         2
       0       1  0.0000000000E+00         3    1         3     12721  0.8333333333E+00  0.1666666667E+00  0.1666666667E+00  0.1812500000E+03  0.7375000000E+02 -0.7492639942E+01         2
       0       1  0.0000000000E+00         4    1         4     12721  0.1666666667E+00  0.5000000000E+00  0.1666666667E+00  0.1802500000E+03  0.7425000000E+02 -0.7492639942E+01         2
       0       1  0.0000000000E+00         5    1         5     12721  0.5000000000E+00  0.5000000000E+00  0.1666666667E+00  0.1807500000E+03  0.7425000000E+02 -0.7492639942E+01         2
       0       1  0.0000000000E+00         6    1         6     12721  0.8333333333E+00  0.5000000000E+00  0.1666666667E+00  0.1812500000E+03  0.7425000000E+02 -0.7492639942E+01         2
       0       1  0.0000000000E+00         7    1         7     12721  0.1666666667E+00  0.8333333333E+00  0.1666666667E+00  0.1802500000E+03  0.7475000000E+02 -0.7492639942E+01         2
       0       1  0.0000000000E+00         8    1         8     12721  0.5000000000E+00  0.8333333333E+00  0.1666666667E+00  0.1807500000E+03  0.7475000000E+02 -0.7492639942E+01         2
       0       1  0.0000000000E+00         9    1         9     12721  0.8333333333E+00  0.8333333333E+00  0.1666666667E+00  0.1812500000E+03  0.7475000000E+02 -0.7492639942E+01         2
       0       1  0.0000000000E+00        10    1        10     12721  0.1666666667E+00  0.1666666667E+00  0.5000000000E+00  0.1802500000E+03  0.7375000000E+02 -0.7122089625E+01         2
       0       1  0.0000000000E+00        11    1        11     12721  0.5000000000E+00  0.1666666667E+00  0.5000000000E+00  0.1807500000E+03  0.7375000000E+02 -0.7122089625E+01         2
       0       1  0.0000000000E+00        12    1        12     12721  0.8333333333E+00  0.1666666667E+00  0.5000000000E+00  0.1812500000E+03  0.7375000000E+02 -0.7122089625E+01         2
       0       1  0.0000000000E+00        13    1        13     12721  0.1666666667E+00  0.5000000000E+00  0.5000000000E+00  0.1802500000E+03  0.7425000000E+02 -0.7122089625E+01         2
       0       1  0.0000000000E+00        14    1        14     12721  0.5000000000E+00  0.5000000000E+00  0.5000000000E+00  0.1807500000E+03  0.7425000000E+02 -0.7122089625E+01         2
       0       1  0.0000000000E+00        15    1        15     12721  0.8333333333E+00  0.5000000000E+00  0.5000000000E+00  0.1812500000E+03  0.7425000000E+02 -0.7122089625E+01         2
       0       1  0.0000000000E+00        16    1        16     12721  0.1666666667E+00  0.8333333333E+00  0.5000000000E+00  0.1802500000E+03  0.7475000000E+02 -0.7122089625E+01         2
       0       1  0.0000000000E+00        17    1        17     12721  0.5000000000E+00  0.8333333333E+00  0.5000000000E+00  0.1807500000E+03  0.7475000000E+02 -0.7122089625E+01         2
       0       1  0.0000000000E+00        18    1        18     12721  0.8333333333E+00  0.8333333333E+00  0.5000000000E+00  0.1812500000E+03  0.7475000000E+02 -0.7122089625E+01         2
       0       1  0.0000000000E+00        19    1        19     12721  0.1666666667E+00  0.1666666667E+00  0.8333333333E+00  0.1802500000E+03  0.7375000000E+02 -0.6751539308E+01         2
       0       1  0.0000000000E+00        20    1        20     12721  0.5000000000E+00  0.1666666667E+00  0.8333333333E+00  0.1807500000E+03  0.7375000000E+02 -0.6751539308E+01         2
       0       1  0.0000000000E+00        21    1        21     12721  0.8333333333E+00  0.1666666667E+00  0.8333333333E+00  0.1812500000E+03  0.7375000000E+02 -0.6751539308E+01         2
       0       1  0.0000000000E+00        22    1        22     12721  0.1666666667E+00  0.5000000000E+00  0.8333333333E+00  0.1802500000E+03  0.7425000000E+02 -0.6751539308E+01         2
       0       1  0.0000000000E+00        23    1        23     12721  0.5000000000E+00  0.5000000000E+00  0.8333333333E+00  0.1807500000E+03  0.7425000000E+02 -0.6751539308E+01         2
       0       1  0.0000000000E+00        24    1        24     12721  0.8333333333E+00  0.5000000000E+00  0.8333333333E+00  0.1812500000E+03  0.7425000000E+02 -0.6751539308E+01         2
       0       1  0.0000000000E+00        25    1        25     12721  0.1666666667E+00  0.8333333333E+00  0.8333333333E+00  0.1802500000E+03  0.7475000000E+02 -0.6751539308E+01         2
       0       1  0.0000000000E+00        26    1        26     12721  0.5000000000E+00  0.8333333333E+00  0.8333333333E+00  0.1807500000E+03  0.7475000000E+02 -0.6751539308E+01         2
       0       1  0.0000000000E+00        27    1        27     12721  0.8333333333E+00  0.8333333333E+00  0.8333333333E+00  0.1812500000E+03  0.7475000000E+02 -0.6751539308E+01         2
       1       1  0.1000000000E-01         1    1         1     12721  0.1666666665E+00  0.1666666666E+00  0.1666666684E+00  0.1802500000E+03  0.7375000000E+02 -0.7492639940E+01         2
       1       1  0.1000000000E-01         2    1         2     12721  0.4999999999E+00  0.1666666666E+00  0.1666666684E+00  0.1807500000E+03  0.7375000000E+02 -0.7492639940E+01         2
       1       1  0.1000000000E-01         3    1         3     12721  0.8333333333E+00  0.1666666666E+00  0.1666666684E+00  0.1812500000E+03  0.7375000000E+02 -0.7492639940E+01         2
       1       1  0.1000000000E-01         4    1         4     12721  0.1666666665E+00  0.4999999999E+00  0.1666666684E+00  0.1802500000E+03  0.7425000000E+02 -0.7492639940E+01         2
       1       1  0.1000000000E-01         5    1         5     12721  0.4999999999E+00  0.4999999999E+00  0.1666666684E+00  0.1807500000E+03  0.7425000000E+02 -0.7492639940E+01         2
       1       1  0.1000000000E-01         6    1         6     12721  0.8333333333E+00  0.4999999999E+00  0.1666666684E+00  0.1812500000E+03  0.7425000000E+02 -0.7492639940E+01         2
       1       1  0.1000000000E-01         7    1         7     12721  0.1666666665E+00  0.8333333333E+00  0.1666666684E+00  0.1802500000E+03  0.7475000000E+02 -0.7492639940E+01         2
       1       1  0.1000000000E-01         8    1         8     12721  0.4999999999E+00  0.8333333333E+00  0.1666666684E+00  0.1807500000E+03  0.7475000000E+02 -0.7492639940E+01         2
       1       1  0.1000000000E-01         9    1         9     12721  0.8333333333E+00  0.8333333333E+00  0.1666666684E+00  0.1812500000E+03  0.7475000000E+02 -0.7492639940E+01         2
       1       1  0.1000000000E-01        10    1        10     12721  0.1666666665E+00  0.1666666666E+00  0.5000000017E+00  0.1802500000E+03  0.7375000000E+02 -0.7122089623E+01         2
       1       1  0.1000000000E-01        11    1        11     12721  0.4999999999E+00  0.1666666666E+00  0.5000000017E+00  0.1807500000E+03  0.7375000000E+02 -0.7122089623E+01         2
       1       1  0.1000000000E-01        12    1        12     12721  0.8333333333E+00  0.1666666666E+00  0.5000000017E+00  0.1812500000E+03  0.7375000000E+02 -0.7122089623E+01         2
       1       1  0.1000000000E-01        13    1        13     12721  0.1666666665E+00  0.4999999999E+00  0.5000000017E+00  0.1802500000E+03  0.7425000000E+02 -0.7122089623E+01         2
       1       1  0.1000000000E-01        14    1        14     12721  0.4999999999E+00  0.4999999999E+00  0.5000000017E+00  0.1807500000E+03  0.7425000000E+02 -0.7122089623E+01         2
       1       1  0.1000000000E-01        15    1        15     12721  0.8333333333E+00  0.4999999999E+00  0.5000000017E+00  0.1812500000E+03  0.7425000000E+02 -0.7122089623E+01         2
       1       1  0.1000000000E-01        16    1        16     12721  0.1666666665E+00  0.8333333333E+00  0.5000000017E+00  0.1802500000E+03  0.7475000000E+02 -0.7122089623E+01         2
       1       1  0.1000000000E-01        17    1        17     12721  0.4999999999E+00  0.8333333333E+00  0.5000000017E+00  0.1807500000E+03  0.7475000000E+02 -0.7122089623E+01         2
       1       1  0.1000000000E-01        18    1        18     12721  0.8333333333E+00  0.8333333333E+00  0.5000000017E+00  0.1812500000E+03  0.7475000000E+02 -0.7122089623E+01         2
       1       1  0.1000000000E-01        19    1        19     12721  0.1666666665E+00  0.1666666666E+00  0.8333333350E+00  0.1802500000E+03  0.7375000000E+02 -0.6751539306E+01         2
       1       1  0.1000000000E-01        20    1        20     12721  0.4999999999E+00  0.1666666666E+00  0.8333333350E+00  0.1807500000E+03  0.7375000000E+02 -0.6751539306E+01         2
       1       1  0.1000000000E-01        21    1        21     12721  0.8333333333E+00  0.1666666666E+00  0.8333333350E+00  0.1812500000E+03  0.7375000000E+02 -0.6751539306E+01         2
       1       1  0.1000000000E-01        22    1        22     12721  0.1666666665E+00  0.4999999999E+00  0.8333333350E+00  0.1802500000E+03  0.7425000000E+02 -0.6751539306E+01         2
       1       1  0.1000000000E-01        23    1        23     12721  0.4999999999E+00  0.4999999999E+00  0.8333333350E+00  0.1807500000E+03  0.7425000000E+02 -0.6751539306E+01         2
       1       1  0.1000000000E-01        24    1        24     12721  0.8333333333E+00  0.4999999999E+00  0.8333333350E+00  0.1812500000E+03  0.7425000000E+02 -0.6751539306E+01         2
       1       1  0.1000000000E-01        25    1        25     12721  0.1666666665E+00  0.8333333333E+00  0.8333333350E+00  0.1802500000E+03  0.7475000000E+02 -0.6751539306E+01         2
       1       1  0.1000000000E-01        26    1        26     12721  0.4999999999E+00  0.8333333333E+00  0.8333333350E+00  0.1807500000E+03  0.7475000000E+02 -0.6751539306E+01         2
       1       1  0.1000000000E-01        27    1        27     12721  0.8333333333E+00  0.8333333333E+00  0.8333333350E+00  0.1812500000E+03  0.7475000000E+02 -0.6751539306E+01         2
       2       1  0.2000000000E-01         1    1         1     12721  0.1666666664E+00  0.1666666666E+00  0.1666666701E+00  0.1802500000E+03  0.7375000000E+02 -0.7492639938E+01         2
       2       1  0.2000000000E-01         2    1         2     12721  0.4999999998E+00  0.1666666666E+00  0.1666666701E+00  0.1807500000E+03  0.7375000000E+02 -0.7492639938E+01         2
       2       1  0.2000000000E-01         3    1         3     12721  0.8333333332E+00  0.1666666666E+00  0.1666666701E+00  0.1812500000E+03  0.7375000000E+02 -0.7492639938E+01         2
       2       1  0.2000000000E-01         4    1         4     12721  0.1666666664E+00  0.4999999999E+00  0.1666666701E+00  0.1802500000E+03  0.7425000000E+02 -0.7492639938E+01         2
       2       1  0.2000000000E-01         5    1         5     12721  0.4999999998E+00  0.4999999999E+00  0.1666666701E+00  0.1807500000E+03  0.7425000000E+02 -0.7492639938E+01         2
       2       1  0.2000000000E-01         6    1         6     12721  0.8333333332E+00  0.4999999999E+00  0.1666666701E+00  0.1812500000E+03  0.7425000000E+02 -0.7492639938E+01         2
       2       1  0.2000000000E-01         7    1         7     12721  0.1666666664E+00  0.8333333332E+00  0.1666666701E+00  0.1802500000E+03  0.7475000000E+02 -0.7492639938E+01         2
       2       1  0.2000000000E-01         8    1         8     12721  0.4999999998E+00  0.8333333332E+00  0.1666666701E+00  0.1807500000E+03  0.7475000000E+02 -0.7492639938E+01         2
       2       1  0.2000000000E-01         9    1         9     12721  0.8333333332E+00  0.8333333332E+00  0.1666666701E+00  0.1812500000E+03  0.7475000000E+02 -0.7492639938E+01         2
       2       1  0.2000000000E-01        10    1        10     12721  0.1666666664E+00  0.1666666666E+00  0.5000000034E+00  0.1802500000E+03  0.7375000000E+02 -0.7122089621E+01         2
       2       1  0.2000000000E-01        11    1        11     12721  0.4999999998E+00  0.1666666666E+00  0.5000000034E+00  0.1807500000E+03  0.7375000000E+02 -0.7122089621E+01         2
       2       1  0.2000000000E-01        12    1        12     12721  0.8333333332E+00  0.1666666666E+00  0.5000000034E+00  0.1812500000E+03  0.7375000000E+02 -0.7122089621E+01         2
       2       1  0.2000000000E-01        13    1        13     12721  0.1666666664E+00  0.4999999999E+00  0.5000000034E+00  0.1802500000E+03  0.7425000000E+02 -0.7122089621E+01         2
       2       1  0.2000000000E-01        14    1        14     12721  0.4999999998E+00  0.4999999999E+00  0.5000000034E+00  0.1807500000E+03  0.7425000000E+02 -0.7122089621E+01         2
       2       1  0.2000000000E-01        15    1        15     12721  0.8333333332E+00  0.4999999999E+00  0.5000000034E+00  0.1812500000E+03  0.7425000000E+02 -0.7122089621E+01         2
       2       1  0.2000000000E-01        16    1        16     12721  0.1666666664E+00  0.8333333332E+00  0.5000000034E+00  0.1802500000E+03  0.7475000000E+02 -0.7122089621E+01         2
       2       1  0.2000000000E-01        17    1        17     12721  0.4999999998E+00  0.8333333332E+00  0.5000000034E+00  0.1807500000E+03  0.7475000000E+02 -0.7122089621E+01         2
       2       1  0.2000000000E-01        18    1        18     12721  0.8333333332E+00  0.8333333332E+00  0.5000000034E+00  0.1812500000E+03  0.7475000000E+02 -0.7122089621E+01         2
       2       1  0.2000000000E-01        19    1        19     12721  0.1666666664E+00  0.1666666666E+00  0.8333333367E+00  0.1802500000E+03  0.7375000000E+02 -0.6751539305E+01         2
       2       1  0.2000000000E-01        20    1        20     12721  0.4999999998E+00  0.1666666666E+00  0.8333333367E+00  0.1807500000E+03  0.7375000000E+02 -0.6751539305E+01         2
       2       1  0.2000000000E-01        21    1        21     12721  0.8333333332E+00  0.1666666666E+00  0.8333333367E+00  0.1812500000E+03  0.7375000000E+02 -0.6751539305E+01         2
       2       1  0.2000000000E-01        22    1        22     12721  0.1666666664E+00  0.4999999999E+00  0.8333333367E+00  0.1802500000E+03  0.7425000000E+02 -0.6751539305E+01         2
       2       1  0.2000000000E-01        23    1        23     12721  0.4999999998E+00  0.4999999999E+00  0.8333333367E+00  0.1807500000E+03  0.7425000000E+02 -0.6751539305E+01         2
       2       1  0.2000000000E-01        24    1        24     12721  0.8333333332E+00  0.4999999999E+00  0.8333333367E+00  0.1812500000E+03  0.7425000000E+02 -0.6751539305E+01         2
       2       1  0.2000000000E-01        25    1        25     12721  0.1666666664E+00  0.8333333332E+00  0.8333333367E+00  0.1802500000E+03  0.7475000000E+02 -0.6751539305E+01         2
       2       1  0.2000000000E-01        26    1        26     12721  0.4999999998E+00  0.8333333332E+00  0.8333333367E+00  0.1807500000E+03  0.7475000000E+02 -0.6751539305E+01         2
       2       1  0.2000000000E-01        27    1        27     12721  0.8333333332E+00  0.8333333332E+00  0.8333333367E+00  0.1812500000E+03  0.7475000000E+02 -0.6751539305E+01         2
       3       1  0.3000000000E-01         1    1         1     12721  0.1666666663E+00  0.1666666665E+00  0.1666666718E+00  0.1802500000E+03  0.7375000000E+02 -0.7492639936E+01         2
       3       1  0.3000000000E-01         2    1         2     12721  0.4999999997E+00  0.1666666665E+00  0.1666666718E+00  0.1807500000E+03  0.7375000000E+02 -0.7492639936E+01         2
       3       1  0.3000000000E-01         3    1         3     12721  0.8333333331E+00  0.1666666665E+00  0.1666666718E+00  0.1812500000E+03  0.7375000000E+02 -0.7492639936E+01         2
       3       1  0.3000000000E-01         4    1         4     12721  0.1666666663E+00  0.4999999998E+00  0.1666666718E+00  0.1802500000E+03  0.7425000000E+02 -0.7492639936E+01         2
       3       1  0.3000000000E-01         5    1         5     12721  0.4999999997E+00  0.4999999998E+00  0.1666666718E+00  0.1807500000E+03  0.7425000000E+02 -0.7492639936E+01         2
       3       1  0.3000000000E-01         6    1         6     12721  0.8333333331E+00  0.4999999998E+00  0.1666666718E+00  0.1812500000E+03  0.7425000000E+02 -0.7492639936E+01         2
       3       1  0.3000000000E-01         7    1         7     12721  0.1666666663E+00  0.8333333331E+00  0.1666666718E+00  0.1802500000E+03  0.7475000000E+02 -0.7492639936E+01         2
       3       1  0.3000000000E-01         8    1         8     12721  0.4999999997E+00  0.8333333331E+00  0.1666666718E+00  0.1807500000E+03  0.7475000000E+02 -0.7492639936E+01         2
       3       1  0.3000000000E-01         9    1         9     12721  0.8333333331E+00  0.8333333331E+00  0.1666666718E+00  0.1812500000E+03  0.7475000000E+02 -0.7492639936E+01         2
       3       1  0.3000000000E-01        10    1        10     12721  0.1666666663E+00  0.1666666665E+00  0.5000000051E+00  0.1802500000E+03  0.7375000000E+02 -0.7122089619E+01         2
       3       1  0.3000000000E-01        11    1        11     12721  0.4999999997E+00  0.1666666665E+00  0.5000000051E+00  0.1807500000E+03  0.7375000000E+02 -0.7122089619E+01         2
       3       1  0.3000000000E-01        12    1        12     12721  0.8333333331E+00  0.1666666665E+00  0.5000000051E+00  0.1812500000E+03  0.7375000000E+02 -0.7122089619E+01         2
       3       1  0.3000000000E-01        13    1        13     12721  0.1666666663E+00  0.4999999998E+00  0.5000000051E+00  0.1802500000E+03  0.7425000000E+02 -0.7122089619E+01         2
       3       1  0.3000000000E-01        14    1        14     12721  0.4999999997E+00  0.4999999998E+00  0.5000000051E+00  0.1807500000E+03  0.7425000000E+02 -0.7122089619E+01         2
       3       1  0.3000000000E-01        15    1        15     12721  0.8333333331E+00  0.4999999998E+00  0.5000000051E+00  0.1812500000E+03  0.7425000000E+02 -0.7122089619E+01         2
       3       1  0.3000000000E-01        16    1        16     12721  0.1666666663E+00  0.8333333331E+00  0.5000000051E+00  0.1802500000E+03  0.7475000000E+02 -0.7122089619E+01         2
       3       1  0.3000000000E-01        17    1        17     12721  0.4999999997E+00  0.8333333331E+00  0.5000000051E+00  0.1807500000E+03  0.7475000000E+02 -0.7122089619E+01         2
       3       1  0.3000000000E-01        18    1        18     12721  0.8333333331E+00  0.8333333331E+00  0.5000000051E+00  0.1812500000E+03  0.7475000000E+02 -0.7122089619E+01         2
       3       1  0.3000000000E-01        19    1        19     12721  0.1666666663E+00  0.1666666665E+00  0.8333333384E+00  0.1802500000E+03  0.7375000000E+02 -0.6751539303E+01         2
       3       1  0.3000000000E-01        20    1        20     12721  0.4999999997E+00  0.1666666665E+00  0.8333333384E+00  0.1807500000E+03  0.7375000000E+02 -0.6751539303E+01         2
       3       1  0.3000000000E-01        21    1        21     12721  0.8333333331E+00  0.1666666665E+00  0.8333333384E+00  0.1812500000E+03  0.7375000000E+02 -0.6751539303E+01         2
       3       1  0.3000000000E-01        22    1        22     12721  0.1666666663E+00  0.4999999998E+00  0.8333333384E+00  0.1802500000E+03  0.7425000000E+02 -0.6751539303E+01         2
       3       1  0.3000000000E-01        23    1        23     12721  0.4999999997E+00  0.4999999998E+00  0.8333333384E+00  0.1807500000E+03  0.7425000000E+02 -0.6751539303E+01         2
       3       1  0.3000000000E-01        24    1        24     12721  0.8333333331E+00  0.4999999998E+00  0.8333333384E+00  0.1812500000E+03  0.7425000000E+02 -0.6751539303E+01         2
       3       1  0.3000000000E-01        25    1        25     12721  0.1666666663E+00  0.8333333331E+00  0.8333333384E+00  0.1802500000E+03  0.7475000000E+02 -0.6751539303E+01         2
       3       1  0.3000000000E-01        26    1        26     12721  0.4999999997E+00  0.8333333331E+00  0.8333333384E+00  0.1807500000E+03  0.7475000000E+02 -0.6751539303E+01         2
       3       1  0.3000000000E-01        27    1        27     12721  0.8333333331E+00  0.8333333331E+00  0.8333333384E+00  0.1812500000E+03  0.7475000000E+02 -0.6751539303E+01         2
       4       1  0.4000000000E-01         1    1         1     12721  0.1666666662E+00  0.1666666665E+00  0.1666666735E+00  0.1802500000E+03  0.7375000000E+02 -0.7492639934E+01         2
       4       1  0.4000000000E-01         2    1         2     12721  0.4999999996E+00  0.1666666665E+00  0.1666666735E+00  0.1807500000E+03  0.7375000000E+02 -0.7492639934E+01         2
       4       1  0.4000000000E-01         3    1         3     12721  0.8333333330E+00  0.1666666665E+00  0.1666666735E+00  0.1812500000E+03  0.7375000000E+02 -0.7492639934E+01         2
       4       1  0.4000000000E-01         4    1         4     12721  0.1666666662E+00  0.4999999998E+00  0.1666666735E+00  0.1802500000E+03  0.7425000000E+02 -0.7492639934E+01         2
       4       1  0.4000000000E-01         5    1         5     12721  0.4999999996E+00  0.4999999998E+00  0.1666666735E+00  0.1807500000E+03  0.7425000000E+02 -0.7492639934E+01         2
       4       1  0.4000000000E-01         6    1         6     12721  0.8333333330E+00  0.4999999998E+00  0.1666666735E+00  0.1812500000E+03  0.7425000000E+02 -0.7492639934E+01         2
       4       1  0.4000000000E-01         7    1         7     12721  0.1666666662E+00  0.8333333330E+00  0.1666666735E+00  0.1802500000E+03  0.7475000000E+02 -0.7492639934E+01         2
       4       1  0.4000000000E-01         8    1         8     12721  0.4999999996E+00  0.8333333330E+00  0.1666666735E+00  0.1807500000E+03  0.7475000000E+02 -0.7492639934E+01         2
       4       1  0.4000000000E-01         9    1         9     12721  0.8333333330E+00  0.8333333330E+00  0.1666666735E+00  0.1812500000E+03  0.7475000000E+02 -0.7492639934E+01         2
       4       1  0.4000000000E-01        10    1        10     12721  0.1666666662E+00  0.1666666665E+00  0.5000000068E+00  0.1802500000E+03  0.7375000000E+02 -0.7122089617E+01         2
       4       1  0.4000000000E-01        11    1        11     12721  0.4999999996E+00  0.1666666665E+00  0.5000000068E+00  0.1807500000E+03  0.7375000000E+02 -0.7122089617E+01         2
       4       1  0.4000000000E-01        12    1        12     12721  0.8333333330E+00  0.1666666665E+00  0.5000000068E+00  0.1812500000E+03  0.7375000000E+02 -0.7122089617E+01         2
       4       1  0.4000000000E-01        13    1        13     12721  0.1666666662E+00  0.4999999998E+00  0.5000000068E+00  0.1802500000E+03  0.7425000000E+02 -0.7122089617E+01         2
       4       1  0.4000000000E-01        14    1        14     12721  0.4999999996E+00  0.4999999998E+00  0.5000000068E+00  0.1807500000E+03  0.7425000000E+02 -0.7122089617E+01         2
       4       1  0.4000000000E-01        15    1        15     12721  0.8333333330E+00  0.4999999998E+00  0.5000000068E+00  0.1812500000E+03  0.7425000000E+02 -0.7122089617E+01         2
       4       1  0.4000000000E-01        16    1        16     12721  0.1666666662E+00  0.8333333330E+00  0.5000000068E+00  0.1802500000E+03  0.7475000000E+02 -0.7122089617E+01         2
       4       1  0.4000000000E-01        17    1        17     12721  0.4999999996E+00  0.8333333330E+00  0.5000000068E+00  0.1807500000E+03  0.7475000000E+02 -0.7122089617E+01         2
       4       1  0.4000000000E-01        18    1        18     12721  0.8333333330E+00  0.8333333330E+00  0.5000000068E+00  0.1812500000E+03  0.7475000000E+02 -0.7122089617E+01         2
       4       1  0.4000000000E-01        19    1        19     12721  0.1666666662E+00  0.1666666665E+00  0.8333333401E+00  0.1802500000E+03  0.7375000000E+02 -0.6751539301E+01         2
       4       1  0.4000000000E-01        20    1        20     12721  0.4999999996E+00  0.1666666665E+00  0.8333333401E+00  0.1807500000E+03  0.7375000000E+02 -0.6751539301E+01         2
       4       1  0.4000000000E-01        21    1        21     12721  0.8333333330E+00  0.1666666665E+00  0.8333333401E+00  0.1812500000E+03  0.7375000000E+02 -0.6751539301E+01         2
       4       1  0.4000000000E-01        22    1        22     12721  0.1666666662E+00  0.4999999998E+00  0.8333333401E+00  0.1802500000E+03  0.7425000000E+02 -0.6751539301E+01         2
       4       1  0.4000000000E-01        23    1        23     12721  0.4999999996E+00  0.4999999998E+00  0.8333333401E+00  0.1807500000E+03  0.7425000000E+02 -0.6751539301E+01         2
       4       1  0.4000000000E-01        24    1        24     12721  0.8333333330E+00  0.4999999998E+00  0.8333333401E+00  0.1812500000E+03  0.7425000000E+02 -0.6751539301E+01         2
       4       1  0.4000000000E-01        25    1        25     12721  0.1666666662E+00  0.8333333330E+00  0.8333333401E+00  0.1802500000E+03  0.7475000000E+02 -0.6751539301E+01         2
       4       1  0.4000000000E-01        26    1        26     12721  0.4999999996E+00  0.8333333330E+00  0.8333333401E+00  0.1807500000E+03  0.7475000000E+02 -0.6751539301E+01         2
       4       1  0.4000000000E-01        27    1        27     12721  0.8333333330E+00  0.8333333330E+00  0.8333333401E+00  0.1812500000E+03  0.7475000000E+02 -0.6751539301E+01         2
       5       1  0.5000000000E-01         1    1         1     12721  0.1666666661E+00  0.1666666665E+00  0.1666666752E+00  0.1802500000E+03  0.7375000000E+02 -0.7492639932E+01         2
       5       1  0.5000000000E-01         2    1         2     12721  0.4999999995E+00  0.1666666665E+00  0.1666666752E+00  0.1807500000E+03  0.7375000000E+02 -0.7492639932E+01         2
       5       1  0.5000000000E-01         3    1         3     12721  0.8333333330E+00  0.1666666665E+00  0.1666666752E+00  0.1812500000E+03  0.7375000000E+02 -0.7492639932E+01         2
       5       1  0.5000000000E-01         4    1         4     12721  0.1666666661E+00  0.4999999997E+00  0.1666666752E+00  0.1802500000E+03  0.7425000000E+02 -0.7492639932E+01         2
       5       1  0.5000000000E-01         5    1         5     12721  0.4999999995E+00  0.4999999997E+00  0.1666666752E+00  0.1807500000E+03  0.7425000000E+02 -0.7492639932E+01         2
       5       1  0.5000000000E-01         6    1         6     12721  0.8333333330E+00  0.4999999997E+00  0.1666666752E+00  0.1812500000E+03  0.7425000000E+02 -0.7492639932E+01         2
       5       1  0.5000000000E-01         7    1         7     12721  0.1666666661E+00  0.8333333329E+00  0.1666666752E+00  0.1802500000E+03  0.7475000000E+02 -0.7492639932E+01         2
       5       1  0.5000000000E-01         8    1         8     12721  0.4999999995E+00  0.8333333329E+00  0.1666666752E+00  0.1807500000E+03  0.7475000000E+02 -0.7492639932E+01         2
       5       1  0.5000000000E-01         9    1         9     12721  0.8333333330E+00  0.8333333329E+00  0.1666666752E+00  0.1812500000E+03  0.7475000000E+02 -0.7492639932E+01         2
       5       1  0.5000000000E-01        10    1        10     12721  0.1666666661E+00  0.1666666665E+00  0.5000000085E+00  0.1802500000E+03  0.7375000000E+02 -0.7122089616E+01         2
       5       1  0.5000000000E-01        11    1        11     12721  0.4999999995E+00  0.1666666665E+00  0.5000000085E+00  0.1807500000E+03  0.7375000000E+02 -0.7122089616E+01         2
       5       1  0.5000000000E-01        12    1        12     12721  0.8333333330E+00  0.1666666665E+00  0.5000000085E+00  0.1812500000E+03  0.7375000000E+02 -0.7122089616E+01         2
       5       1  0.5000000000E-01        13    1        13     12721  0.1666666661E+00  0.4999999997E+00  0.5000000085E+00  0.1802500000E+03  0.7425000000E+02 -0.7122089616E+01         2
       5       1  0.5000000000E-01        14    1        14     12721  0.4999999995E+00  0.4999999997E+00  0.5000000085E+00  0.1807500000E+03  0.7425000000E+02 -0.7122089616E+01         2
       5       1  0.5000000000E-01        15    1        15     12721  0.8333333330E+00  0.4999999997E+00  0.5000000085E+00  0.1812500000E+03  0.7425000000E+02 -0.7122089616E+01         2
       5       1  0.5000000000E-01        16    1        16     12721  0.1666666661E+00  0.8333333329E+00  0.5000000085E+00  0.1802500000E+03  0.7475000000E+02 -0.7122089616E+01         2
       5       1  0.5000000000E-01        17    1        17     12721  0.4999999995E+00  0.8333333329E+00  0.5000000085E+00  0.1807500000E+03  0.7475000000E+02 -0.7122089616E+01         2
       5       1  0.5000000000E-01        18    1        18     12721  0.8333333330E+00  0.8333333329E+00  0.5000000085E+00  0.1812500000E+03  0.7475000000E+02 -0.7122089616E+01         2
       5       1  0.5000000000E-01        19    1        19     12721  0.1666666661E+00  0.1666666665E+00  0.8333333418E+00  0.1802500000E+03  0.7375000000E+02 -0.6751539299E+01         2
       5       1  0.5000000000E-01        20    1        20     12721  0.4999999995E+00  0.1666666665E+00  0.8333333418E+00  0.1807500000E+03  0.7375000000E+02 -0.6751539299E+01         2
       5       1  0.5000000000E-01        21    1        21     12721  0.8333333330E+00  0.1666666665E+00  0.8333333418E+00  0.1812500000E+03  0.7375000000E+02 -0.6751539299E+01         2
       5       1  0.5000000000E-01        22    1        22     12721  0.1666666661E+00  0.4999999997E+00  0.8333333418E+00  0.1802500000E+03  0.7425000000E+02 -0.6751539299E+01         2
       5       1  0.5000000000E-01        23    1        23     12721  0.4999999995E+00  0.4999999997E+00  0.8333333418E+00  0.1807500000E+03  0.7425000000E+02 -0.6751539299E+01         2