MODPATH_TIMESERIES_FILE         7         2
    2   0.0000000000E+00  0.0000000000E+00  0.0000000000E+00  0.0000000000E+00
END HEADER
       0       1  0.0000000000E+00         1    1         1     98001  0.2500000000E+00  0.2500000000E+00  0.2500000000E+00  0.3750000000E+00  0.1038750000E+03 -0.6112522605E+01        11
       0       1  0.0000000000E+00         2    1         2     98001  0.7500000000E+00  0.2500000000E+00  0.2500000000E+00  0.1125000000E+01  0.1038750000E+03 -0.6112522605E+01        11
       0       1  0.0000000000E+00         3    1         3     98001  0.2500000000E+00  0.7500000000E+00  0.2500000000E+00  0.3750000000E+00  0.1046250000E+03 -0.6112522605E+01        11
       0       1  0.0000000000E+00         4    1         4     98001  0.7500000000E+00  0.7500000000E+00  0.2500000000E+00  0.1125000000E+01  0.1046250000E+03 -0.6112522605E+01        11
       0       1  0.0000000000E+00         5    1         5     98001  0.2500000000E+00  0.2500000000E+00  0.7500000000E+00  0.3750000000E+00  0.1038750000E+03 -0.6037522795E+01        11
       0       1  0.0000000000E+00         6    1         6     98001  0.7500000000E+00  0.2500000000E+00  0.7500000000E+00  0.1125000000E+01  0.1038750000E+03 -0.6037522795E+01        11
       0       1  0.0000000000E+00         7    1         7     98001  0.2500000000E+00  0.7500000000E+00  0.7500000000E+00  0.3750000000E+00  0.1046250000E+03 -0.6037522795E+01        11
       0       1  0.0000000000E+00         8    1         8     98001  0.7500000000E+00  0.7500000000E+00  0.7500000000E+00  0.1125000000E+01  0.1046250000E+03 -0.6037522795E+01        11
