# File generated by Flopy version 3.9.2 on 02/26/2025 at 11:01:02.
BEGIN options
END options

BEGIN timing
  TDIS6  sim_test.tdis
END timing

BEGIN models
  gwf6  test.nam  test
END models

BEGIN exchanges
END exchanges

BEGIN solutiongroup  1
  ims6  sim_test.ims  test
END solutiongroup  1

