# File generated by Flopy version 3.9.2 on 03/06/2025 at 15:24:08.
BEGIN options
  COMPLEXITY  moderate
END options

BEGIN linear
  INNER_DVCLOSE  1.00000000E-04
END linear

