# File generated by Flopy version 3.9.1 on 03/07/2025 at 13:04:55.
BEGIN options
  SAVE_FLOWS
  SAVE_SPECIFIC_DISCHARGE
  SAVE_SATURATION
END options

BEGIN griddata
  icelltype
    CONSTANT  0
  k  LAYERED
    INTERNAL  FACTOR  1.0
      9.99999902E-05  9.99999902E-05  9.99999902E-05  9.99999975E-05  9.99999975E-05  9.99999975E-05  9.99999975E-05  9.99999975E-05  9.99999975E-05  9.99999975E-05  9.99999975E-05  9.99999975E-05  9.99999975E-05  9.99999975E-05  9.99999975E-05  9.99999975E-05  9.99999902E-05  9.99999902E-05  9.99999902E-05  9.99999902E-05  9.99999902E-05  9.99999902E-05  9.99999975E-05  9.99999975E-05  9.99999975E-05  9.99999975E-05  9.99999975E-05  9.99999975E-05  9.99999902E-05  9.99999902E-05  9.99999902E-05  9.99999902E-05  9.99999902E-05  9.99999975E-05  9.99999975E-05  9.99999975E-05  9.99999975E-05  9.99999975E-05  9.99999975E-05  9.99999902E-05  9.99999902E-05  9.99999902E-05  9.99999902E-05  9.99999902E-05  9.99999902E-05  9.99999902E-05  9.99999902E-05  9.99999902E-05  9.99999902E-05  9.99999902E-05  9.99999902E-05  9.99999975E-05  9.99999975E-05  9.99999975E-05  9.99999975E-05  9.99999975E-05  9.99999975E-05  9.99999902E-05  9.99999975E-05  9.99999975E-05  9.99999975E-05  9.99999975E-05  9.99999975E-05  9.99999975E-05  9.99999975E-05  9.99999975E-05  9.99999975E-05  9.99999975E-05  9.99999975E-05  9.99999975E-05  9.99999975E-05  9.99999975E-05  9.99999975E-05  9.99999975E-05  9.99999975E-05  9.99999975E-05  9.99999975E-05  9.99999975E-05  9.99999975E-05  9.99999902E-05  9.99999902E-05  9.99999975E-05  9.99999975E-05  9.99999975E-05  9.99999975E-05  9.99999975E-05  9.99999975E-05  9.99999975E-05  9.99999975E-05  9.99999975E-05  9.99999975E-05  9.99999975E-05  9.99999975E-05  9.99999975E-05  9.99999975E-05  9.99999975E-05  9.99999975E-05  9.99999975E-05  9.99999975E-05  9.99999975E-05
      9.99999902E-05  9.99999902E-05  9.99999902E-05  9.99999975E-05  9.99999975E-05  9.99999975E-05  9.99999975E-05  9.99999975E-05  9.99999975E-05  9.99999975E-05  9.99999975E-05  9.99999975E-05  9.99999975E-05  9.99999975E-05  9.99999975E-05  9.99999975E-05  9.99999902E-05  9.99999902E-05  9.99999902E-05  9.99999902E-05  9.99999902E-05  9.99999902E-05  9.99999975E-05  9.99999975E-05  9.99999975E-05  9.99999975E-05  9.99999975E-05  9.99999902E-05  9.99999902E-05  9.99999902E-05  9.99999902E-05  9.99999902E-05  9.99999902E-05  9.99999902E-05  9.99999902E-05  9.99999902E-05  9.99999902E-05  9.99999902E-05  9.99999902E-05  9.99999902E-05  9.99999902E-05  9.99999902E-05  9.99999902E-05  9.99999902E-05  9.99999902E-05  9.99999902E-05  9.99999902E-05  9.99999902E-05  9.99999902E-05  9.99999902E-05  9.99999902E-05  9.99999902E-05  9.99999975E-05  9.99999975E-05  9.99999975E-05  9.99999975E-05  9.99999975E-05  9.99999902E-05  9.99999902E-05  9.99999975E-05  9.99999975E-05  9.99999975E-05  9.99999975E-05  9.99999975E-05  9.99999975E-05  9.99999975E-05  9.99999975E-05  9.99999975E-05  9.99999975E-05  9.99999975E-05  9.99999975E-05  9.99999975E-05  9.99999975E-05  9.99999975E-05  9.99999975E-05  9.99999975E-05  9.99999975E-05  9.99999975E-05  9.99999902E-05  9.99999902E-05  9.99999975E-05  9.99999975E-05  9.99999975E-05  9.99999975E-05  9.99999975E-05  9.99999975E-05  9.99999975E-05  9.99999975E-05  9.99999975E-05  9.99999975E-05  9.99999975E-05  9.99999975E-05  9.99999975E-05  9.99999975E-05  9.99999975E-05  9.99999975E-05  9.99999975E-05  9.99999975E-05  9.99999975E-05  9.99999975E-05
      9.99999902E-05  9.99999902E-05  9.99999902E-05  9.99999975E-05  9.99999975E-05  9.99999975E-05  9.99999975E-05  9.99999975E-05  9.99999975E-05  9.99999975E-05  9.99999975E-05  9.99999975E-05  9.99999975E-05  9.99999975E-05  9.99999975E-05  9.99999902E-05  9.99999902E-05  9.99999902E-05  9.99999902E-05  9.99999902E-05  9.99999902E-05  9.99999975E-05  9.99999975E-05  9.99999975E-05  9.99999975E-05  9.99999975E-05  9.99999902E-05  9.99999902E-05  9.99999902E-05  9.99999902E-05  9.99999902E-05  9.99999902E-05  9.99999902E-05  9.99999902E-05  9.99999902E-05  9.99999902E-05  9.99999902E-05  9.99999902E-05  9.99999902E-05  9.99999902E-05  9.99999902E-05  9.99999902E-05  9.99999902E-05  9.99999902E-05  9.99999902E-05  9.99999902E-05  9.99999902E-05  9.99999902E-05  9.99999902E-05  9.99999902E-05  9.99999902E-05  9.99999902E-05  9.99999902E-05  9.99999975E-05  9.99999975E-05  9.99999975E-05  9.99999975E-05  9.99999902E-05  9.99999902E-05  9.99999975E-05  9.99999975E-05  9.99999975E-05  9.99999975E-05  9.99999975E-05  9.99999975E-05  9.99999975E-05  9.99999975E-05  9.99999975E-05  9.99999975E-05  9.99999975E-05  9.99999975E-05  9.99999975E-05  9.99999975E-05  9.99999975E-05  9.99999975E-05  9.99999975E-05  9.99999975E-05  9.99999902E-05  9.99999902E-05  9.99999975E-05  9.99999975E-05  9.99999975E-05  9.99999975E-05  9.99999975E-05  9.99999975E-05  9.99999975E-05  9.99999975E-05  9.99999975E-05  9.99999975E-05  9.99999975E-05  9.99999975E-05  9.99999975E-05  9.99999975E-05  9.99999975E-05  9.99999975E-05  9.99999975E-05  9.99999975E-05  9.99999975E-05  9.99999975E-05  9.99999975E-05
      9.99999902E-05  9.99999902E-05  9.99999975E-05  9.99999975E-05  9.99999975E-05  9.99999975E-05  9.99999975E-05  9.99999975E-05  9.99999975E-05  9.99999975E-05  9.99999975E-05  9.99999975E-05  9.99999975E-05  9.99999975E-05  9.99999975E-05  9.99999902E-05  9.99999902E-05  9.99999902E-05  9.99999902E-05  9.99999902E-05  9.99999975E-05  9.99999975E-05  9.99999975E-05  9.99999975E-05  9.99999975E-05  9.99999902E-05  9.99999902E-05  9.99999829E-05  9.99999829E-05  9.99999829E-05  9.99999829E-05  9.99999829E-05  9.99999829E-05  9.99999902E-05  9.99999902E-05  9.99999902E-05  9.99999902E-05  9.99999902E-05  9.99999902E-05  9.99999902E-05  9.99999902E-05  9.99999902E-05  9.99999902E-05  9.99999902E-05  9.99999902E-05  9.99999902E-05  9.99999902E-05  9.99999902E-05  9.99999902E-05  9.99999902E-05  9.99999902E-05  9.99999902E-05  9.99999902E-05  9.99999975E-05  9.99999975E-05  9.99999975E-05  9.99999975E-05  9.99999975E-05  9.99999902E-05  9.99999975E-05  9.99999975E-05  9.99999975E-05  9.99999975E-05  9.99999975E-05  9.99999975E-05  9.99999975E-05  9.99999975E-05  9.99999975E-05  9.99999975E-05  9.99999975E-05  9.99999975E-05  9.99999975E-05  9.99999975E-05  9.99999975E-05  9.99999975E-05  9.99999902E-05  9.99999902E-05  9.99999902E-05  9.99999975E-05  9.99999975E-05  9.99999975E-05  9.99999975E-05  9.99999975E-05  9.99999975E-05  9.99999975E-05  9.99999975E-05  9.99999975E-05  9.99999975E-05  9.99999975E-05  9.99999975E-05  9.99999975E-05  9.99999975E-05  9.99999975E-05  9.99999975E-05  9.99999975E-05  9.99999975E-05  9.99999975E-05  9.99999975E-05  9.99999975E-05  9.99999975E-05
      9.99999902E-05  9.99999975E-05  9.99999975E-05  9.99999975E-05  9.99999975E-05  9.99999975E-05  9.99999975E-05  9.99999975E-05  9.99999975E-05  9.99999975E-05  9.99999975E-05  9.99999975E-05  9.99999975E-05  9.99999975E-05  9.99999975E-05  9.99999902E-05  9.99999902E-05  9.99999902E-05  9.99999902E-05  9.99999975E-05  9.99999975E-05  9.99999975E-05  9.99999975E-05  9.99999975E-05  9.99999902E-05  9.99999902E-05  9.99999829E-05  9.99999829E-05  9.99999829E-05  9.99999829E-05  9.99999829E-05  9.99999829E-05  9.99999829E-05  9.99999829E-05  9.99999902E-05  9.99999902E-05  9.99999902E-05  9.99999902E-05  9.99999902E-05  9.99999902E-05  9.99999902E-05  9.99999902E-05  9.99999902E-05  9.99999902E-05  9.99999902E-05  9.99999902E-05  9.99999902E-05  9.99999902E-05  9.99999902E-05  9.99999902E-05  9.99999902E-05  9.99999902E-05  9.99999902E-05  9.99999975E-05  9.99999975E-05  9.99999975E-05  9.99999975E-05  9.99999975E-05  9.99999975E-05  9.99999902E-05  9.99999975E-05  9.99999975E-05  9.99999975E-05  9.99999975E-05  9.99999975E-05  9.99999975E-05  9.99999975E-05  9.99999975E-05  9.99999975E-05  9.99999975E-05  9.99999975E-05  9.99999975E-05  9.99999975E-05  9.99999975E-05  9.99999975E-05  9.99999902E-05  9.99999975E-05  9.99999975E-05  9.99999975E-05  9.99999975E-05  9.99999975E-05  9.99999975E-05  9.99999975E-05  9.99999975E-05  9.99999975E-05  9.99999975E-05  9.99999975E-05  9.99999975E-05  9.99999975E-05  9.99999975E-05  9.99999975E-05  9.99999975E-05  9.99999975E-05  9.99999975E-05  9.99999975E-05  9.99999975E-05  9.99999975E-05  9.99999975E-05  9.99999975E-05  9.99999975E-05
      9.99999975E-05  9.99999975E-05  9.99999975E-05  9.99999975E-05  9.99999975E-05  9.99999975E-05  9.99999975E-05  9.99999975E-05  9.99999975E-05  9.99999975E-05  9.99999975E-05  9.99999975E-05  9.99999975E-05  9.99999975E-05  9.99999975E-05  9.99999975E-05  9.99999902E-05  9.99999902E-05  9.99999975E-05  9.99999975E-05  9.99999975E-05  9.99999975E-05  9.99999902E-05  9.99999902E-05  9.99999902E-05  9.99999829E-05  9.99999829E-05  9.99999829E-05  9.99999829E-05  9.99999829E-05  9.99999829E-05  9.99999829E-05  9.99999829E-05  9.99999829E-05  9.99999902E-05  9.99999902E-05  9.99999902E-05  9.99999902E-05  9.99999902E-05  9.99999902E-05  9.99999902E-05  9.99999902E-05  9.99999902E-05  9.99999902E-05  9.99999902E-05  9.99999829E-05  9.99999829E-05  9.99999829E-05  9.99999902E-05  9.99999902E-05  9.99999902E-05  9.99999902E-05  9.99999902E-05  9.99999902E-05  9.99999975E-05  9.99999975E-05  9.99999975E-05  9.99999975E-05  9.99999975E-05  9.99999902E-05  9.99999975E-05  9.99999975E-05  9.99999975E-05  9.99999975E-05  9.99999975E-05  9.99999975E-05  9.99999975E-05  9.99999975E-05  9.99999975E-05  9.99999975E-05  9.99999975E-05  9.99999975E-05  9.99999975E-05  9.99999975E-05  9.99999902E-05  9.99999902E-05  9.99999975E-05  9.99999975E-05  9.99999975E-05  9.99999975E-05  9.99999975E-05  9.99999975E-05  9.99999975E-05  9.99999975E-05  9.99999975E-05  9.99999975E-05  9.99999975E-05  9.99999975E-05  9.99999975E-05  9.99999975E-05  9.99999975E-05  9.99999975E-05  9.99999975E-05  9.99999975E-05  9.99999975E-05  9.99999975E-05  9.99999975E-05  9.99999975E-05  9.99999975E-05  9.99999975E-05
      9.99999975E-05  9.99999975E-05  9.99999975E-05  9.99999975E-05  9.99999975E-05  9.99999975E-05  9.99999975E-05  9.99999975E-05  9.99999975E-05  9.99999975E-05  9.99999975E-05  9.99999975E-05  9.99999975E-05  9.99999975E-05  9.99999975E-05  9.99999975E-05  9.99999902E-05  9.99999975E-05  9.99999975E-05  9.99999975E-05  9.99999975E-05  9.99999975E-05  9.99999902E-05  9.99999902E-05  9.99999829E-05  9.99999829E-05  9.99999829E-05  9.99999829E-05  9.99999829E-05  9.99999829E-05  9.99999829E-05  9.99999829E-05  9.99999829E-05  9.99999829E-05  9.99999902E-05  9.99999902E-05  9.99999902E-05  9.99999902E-05  9.99999902E-05  9.99999902E-05  9.99999902E-05  9.99999902E-05  9.99999902E-05  9.99999902E-05  9.99999902E-05  9.99999829E-05  9.99999829E-05  9.99999902E-05  9.99999902E-05  9.99999902E-05  9.99999902E-05  9.99999902E-05  9.99999902E-05  9.99999902E-05  9.99999975E-05  9.99999975E-05  9.99999975E-05  9.99999975E-05  9.99999975E-05  9.99999902E-05  9.99999975E-05  9.99999975E-05  9.99999975E-05  9.99999975E-05  9.99999975E-05  9.99999975E-05  9.99999975E-05  9.99999975E-05  9.99999975E-05  9.99999975E-05  9.99999975E-05  9.99999975E-05  9.99999975E-05  9.99999975E-05  9.99999902E-05  9.99999902E-05  9.99999975E-05  9.99999975E-05  9.99999975E-05  9.99999975E-05  9.99999975E-05  9.99999975E-05  9.99999975E-05  9.99999975E-05  9.99999975E-05  9.99999975E-05  9.99999975E-05  9.99999975E-05  9.99999975E-05  9.99999975E-05  9.99999975E-05  9.99999975E-05  9.99999975E-05  9.99999975E-05  9.99999975E-05  9.99999975E-05  9.99999975E-05  9.99999975E-05  9.99999975E-05  9.99999975E-05
      9.99999975E-05  9.99999975E-05  9.99999975E-05  9.99999975E-05  9.99999975E-05  9.99999975E-05  9.99999975E-05  9.99999975E-05  9.99999975E-05  9.99999975E-05  9.99999975E-05  9.99999975E-05  9.99999975E-05  9.99999975E-05  9.99999975E-05  9.99999975E-05  9.99999975E-05  9.99999975E-05  9.99999975E-05  9.99999975E-05  9.99999975E-05  9.99999902E-05  9.99999902E-05  9.99999902E-05  9.99999829E-05  9.99999829E-05  9.99999829E-05  9.99999829E-05  9.99999829E-05  9.99999829E-05  9.99999829E-05  9.99999829E-05  9.99999829E-05  9.99999829E-05  9.99999902E-05  9.99999902E-05  9.99999902E-05  9.99999902E-05  9.99999902E-05  9.99999902E-05  9.99999902E-05  9.99999902E-05  9.99999902E-05  9.99999829E-05  9.99999829E-05  9.99999829E-05  9.99999829E-05  9.99999902E-05  9.99999902E-05  9.99999902E-05  9.99999902E-05  9.99999902E-05  9.99999902E-05  9.99999902E-05  9.99999902E-05  9.99999975E-05  9.99999975E-05  9.99999975E-05  9.99999975E-05  9.99999902E-05  9.99999975E-05  9.99999975E-05  9.99999975E-05  9.99999975E-05  9.99999975E-05  9.99999975E-05  9.99999975E-05  9.99999975E-05  9.99999975E-05  9.99999975E-05  9.99999975E-05  9.99999975E-05  9.99999975E-05  9.99999902E-05  9.99999902E-05  9.99999975E-05  9.99999975E-05  9.99999902E-05  9.99999902E-05  9.99999902E-05  9.99999975E-05  9.99999975E-05  9.99999975E-05  9.99999975E-05  9.99999975E-05  9.99999975E-05  9.99999975E-05  9.99999975E-05  9.99999975E-05  9.99999975E-05  9.99999975E-05  9.99999975E-05  9.99999975E-05  9.99999975E-05  9.99999975E-05  9.99999975E-05  9.99999975E-05  9.99999975E-05  9.99999975E-05  9.99999975E-05
      9.99999975E-05  9.99999975E-05  9.99999975E-05  9.99999975E-05  9.99999975E-05  9.99999975E-05  9.99999975E-05  9.99999975E-05  9.99999975E-05  9.99999975E-05  9.99999975E-05  9.99999975E-05  9.99999975E-05  9.99999975E-05  9.99999975E-05  9.99999975E-05  9.99999975E-05  9.99999975E-05  9.99999975E-05  9.99999975E-05  9.99999975E-05  9.99999902E-05  9.99999902E-05  9.99999902E-05  9.99999829E-05  9.99999829E-05  9.99999829E-05  9.99999829E-05  9.99999829E-05  9.99999829E-05  9.99999829E-05  9.99999829E-05  9.99999829E-05  9.99999829E-05  9.99999902E-05  9.99999902E-05  9.99999902E-05  9.99999902E-05  9.99999902E-05  9.99999902E-05  9.99999902E-05  9.99999902E-05  9.99999902E-05  9.99999829E-05  9.99999829E-05  9.99999829E-05  9.99999829E-05  9.99999902E-05  9.99999902E-05  9.99999902E-05  9.99999902E-05  9.99999902E-05  9.99999902E-05  9.99999902E-05  9.99999975E-05  9.99999975E-05  9.99999975E-05  9.99999975E-05  9.99999902E-05  9.99999902E-05  9.99999975E-05  9.99999975E-05  9.99999975E-05  9.99999975E-05  9.99999975E-05  9.99999975E-05  9.99999975E-05  9.99999975E-05  9.99999975E-05  9.99999975E-05  9.99999975E-05  9.99999975E-05  9.99999975E-05  9.99999902E-05  9.99999975E-05  9.99999975E-05  9.99999975E-05  9.99999975E-05  9.99999975E-05  9.99999975E-05  9.99999902E-05  9.99999975E-05  9.99999975E-05  9.99999975E-05  9.99999975E-05  9.99999975E-05  9.99999975E-05  9.99999975E-05  9.99999975E-05  9.99999975E-05  9.99999975E-05  9.99999975E-05  9.99999975E-05  9.99999975E-05  9.99999975E-05  9.99999975E-05  9.99999975E-05  9.99999975E-05  9.99999975E-05  9.99999975E-05
      9.99999975E-05  9.99999975E-05  9.99999975E-05  9.99999975E-05  9.99999975E-05  9.99999975E-05  9.99999975E-05  9.99999975E-05  9.99999975E-05  9.99999975E-05  9.99999975E-05  9.99999975E-05  9.99999975E-05  9.99999975E-05  9.99999975E-05  9.99999975E-05  9.99999975E-05  9.99999975E-05  9.99999975E-05  9.99999975E-05  9.99999975E-05  9.99999902E-05  9.99999902E-05  9.99999829E-05  9.99999829E-05  9.99999829E-05  9.99999829E-05  9.99999829E-05  9.99999829E-05  9.99999829E-05  9.99999829E-05  9.99999829E-05  9.99999829E-05  9.99999829E-05  9.99999902E-05  9.99999902E-05  9.99999902E-05  9.99999902E-05  9.99999902E-05  9.99999902E-05  9.99999902E-05  9.99999902E-05  9.99999829E-05  9.99999829E-05  9.99999829E-05  9.99999829E-05  9.99999902E-05  9.99999902E-05  9.99999902E-05  9.99999902E-05  9.99999902E-05  9.99999902E-05  9.99999902E-05  9.99999902E-05  9.99999975E-05  9.99999975E-05  9.99999975E-05  9.99999975E-05  9.99999902E-05  9.99999975E-05  9.99999975E-05  9.99999975E-05  9.99999975E-05  9.99999975E-05  9.99999975E-05  9.99999975E-05  9.99999975E-05  9.99999975E-05  9.99999975E-05  9.99999975E-05  9.99999975E-05  9.99999975E-05  9.99999975E-05  9.99999902E-05  9.99999975E-05  9.99999975E-05  9.99999975E-05  9.99999975E-05  9.99999975E-05  9.99999975E-05  9.99999902E-05  9.99999975E-05  9.99999975E-05  9.99999975E-05  9.99999975E-05  9.99999975E-05  9.99999902E-05  9.99999902E-05  9.99999975E-05  9.99999975E-05  9.99999975E-05  9.99999975E-05  9.99999975E-05  9.99999975E-05  9.99999975E-05  9.99999975E-05  9.99999975E-05  9.99999975E-05  9.99999975E-05  9.99999975E-05
      9.99999975E-05  9.99999975E-05  9.99999975E-05  9.99999975E-05  9.99999975E-05  9.99999975E-05  9.99999975E-05  9.99999975E-05  9.99999975E-05  9.99999975E-05  9.99999975E-05  9.99999975E-05  9.99999975E-05  9.99999975E-05  9.99999975E-05  9.99999975E-05  9.99999975E-05  9.99999975E-05  9.99999975E-05  9.99999975E-05  9.99999975E-05  9.99999902E-05  9.99999902E-05  9.99999902E-05  9.99999829E-05  9.99999829E-05  9.99999829E-05  9.99999829E-05  9.99999829E-05  9.99999829E-05  9.99999829E-05  9.99999829E-05  9.99999829E-05  9.99999829E-05  9.99999902E-05  9.99999902E-05  9.99999902E-05  9.99999902E-05  9.99999902E-05  9.99999902E-05  9.99999902E-05  9.99999902E-05  9.99999829E-05  9.99999829E-05  9.99999829E-05  9.99999902E-05  9.99999902E-05  9.99999902E-05  9.99999902E-05  9.99999902E-05  9.99999902E-05  9.99999902E-05  9.99999902E-05  9.99999902E-05  9.99999975E-05  9.99999975E-05  9.99999975E-05  9.99999975E-05  9.99999902E-05  9.99999975E-05  9.99999975E-05  9.99999975E-05  9.99999975E-05  9.99999975E-05  9.99999975E-05  9.99999975E-05  9.99999975E-05  9.99999975E-05  9.99999975E-05  9.99999975E-05  9.99999975E-05  9.99999975E-05  9.99999975E-05  9.99999975E-05  9.99999975E-05  9.99999975E-05  9.99999975E-05  9.99999975E-05  9.99999975E-05  9.99999975E-05  9.99999975E-05  9.99999975E-05  9.99999975E-05  9.99999975E-05  9.99999902E-05  9.99999902E-05  9.99999902E-05  9.99999902E-05  9.99999902E-05  9.99999975E-05  9.99999975E-05  9.99999975E-05  9.99999975E-05  9.99999975E-05  9.99999975E-05  9.99999975E-05  9.99999975E-05  9.99999975E-05  9.99999975E-05  9.99999975E-05
      9.99999975E-05  9.99999975E-05  9.99999975E-05  9.99999975E-05  9.99999975E-05  9.99999975E-05  9.99999975E-05  9.99999975E-05  9.99999975E-05  9.99999975E-05  9.99999975E-05  9.99999975E-05  9.99999975E-05  9.99999975E-05  9.99999975E-05  9.99999975E-05  9.99999975E-05  9.99999975E-05  9.99999975E-05  9.99999975E-05  9.99999975E-05  9.99999902E-05  9.99999902E-05  9.99999902E-05  9.99999829E-05  9.99999829E-05  9.99999829E-05  9.99999829E-05  9.99999829E-05  9.99999829E-05  9.99999829E-05  9.99999829E-05  9.99999902E-05  9.99999902E-05  9.99999902E-05  9.99999902E-05  9.99999902E-05  9.99999902E-05  9.99999902E-05  9.99999902E-05  9.99999902E-05  9.99999902E-05  9.99999829E-05  9.99999829E-05  9.99999902E-05  9.99999902E-05  9.99999902E-05  9.99999902E-05  9.99999829E-05  9.99999829E-05  9.99999902E-05  9.99999902E-05  9.99999902E-05  9.99999975E-05  9.99999975E-05  9.99999975E-05  9.99999975E-05  9.99999975E-05  9.99999902E-05  9.99999975E-05  9.99999975E-05  9.99999975E-05  9.99999975E-05  9.99999975E-05  9.99999975E-05  9.99999975E-05  9.99999975E-05  9.99999975E-05  9.99999975E-05  9.99999975E-05  9.99999975E-05  9.99999975E-05  9.99999975E-05  9.99999975E-05  9.99999975E-05  9.99999975E-05  9.99999975E-05  9.99999975E-05  9.99999975E-05  9.99999975E-05  9.99999975E-05  9.99999902E-05  9.99999975E-05  9.99999902E-05  9.99999902E-05  9.99999902E-05  9.99999902E-05  9.99999902E-05  9.99999902E-05  9.99999902E-05  9.99999975E-05  9.99999975E-05  9.99999975E-05  9.99999975E-05  9.99999975E-05  9.99999975E-05  9.99999975E-05  9.99999975E-05  9.99999975E-05  9.99999975E-05
      9.99999902E-05  9.99999902E-05  9.99999902E-05  9.99999902E-05  9.99999902E-05  9.99999902E-05  9.99999902E-05  9.99999975E-05  9.99999975E-05  9.99999975E-05  9.99999975E-05  9.99999975E-05  9.99999975E-05  9.99999975E-05  9.99999975E-05  9.99999975E-05  9.99999975E-05  9.99999975E-05  9.99999975E-05  9.99999975E-05  9.99999975E-05  9.99999975E-05  9.99999902E-05  9.99999902E-05  9.99999829E-05  9.99999829E-05  9.99999829E-05  9.99999829E-05  9.99999829E-05  9.99999829E-05  9.99999902E-05  9.99999902E-05  9.99999902E-05  9.99999902E-05  9.99999902E-05  9.99999902E-05  9.99999902E-05  9.99999902E-05  9.99999902E-05  9.99999902E-05  9.99999902E-05  9.99999902E-05  9.99999902E-05  9.99999902E-05  9.99999902E-05  9.99999902E-05  9.99999902E-05  9.99999902E-05  9.99999902E-05  9.99999902E-05  9.99999902E-05  9.99999902E-05  9.99999975E-05  9.99999975E-05  9.99999975E-05  9.99999975E-05  9.99999975E-05  9.99999902E-05  9.99999902E-05  9.99999975E-05  9.99999975E-05  9.99999975E-05  9.99999975E-05  9.99999975E-05  9.99999975E-05  9.99999975E-05  9.99999975E-05  9.99999975E-05  9.99999975E-05  9.99999975E-05  9.99999975E-05  9.99999975E-05  9.99999975E-05  9.99999975E-05  9.99999975E-05  9.99999946E-05  9.99999975E-05  9.99999975E-05  9.99999975E-05  9.99999975E-05  9.99999975E-05  9.99999902E-05  9.99999975E-05  9.99999902E-05  9.99999829E-05  9.99999902E-05  9.99999902E-05  9.99999902E-05  9.99999902E-05  9.99999975E-05  9.99999975E-05  9.99999975E-05  9.99999975E-05  9.99999975E-05  9.99999975E-05  9.99999975E-05  9.99999975E-05  9.99999975E-05  9.99999975E-05  9.99999975E-05
      9.99999902E-05  9.99999902E-05  9.99999902E-05  9.99999902E-05  9.99999902E-05  9.99999902E-05  9.99999902E-05  9.99999975E-05  9.99999975E-05  9.99999975E-05  9.99999975E-05  9.99999975E-05  9.99999975E-05  9.99999975E-05  9.99999975E-05  9.99999975E-05  9.99999975E-05  9.99999975E-05  9.99999975E-05  9.99999975E-05  9.99999975E-05  9.99999975E-05  9.99999902E-05  9.99999902E-05  9.99999829E-05  9.99999829E-05  9.99999829E-05  9.99999829E-05  9.99999829E-05  9.99999902E-05  9.99999902E-05  9.99999902E-05  9.99999902E-05  9.99999902E-05  9.99999902E-05  9.99999902E-05  9.99999902E-05  9.99999902E-05  9.99999902E-05  9.99999902E-05  9.99999902E-05  9.99999902E-05  9.99999902E-05  9.99999902E-05  9.99999902E-05  9.99999902E-05  9.99999902E-05  9.99999902E-05  9.99999902E-05  9.99999902E-05  9.99999902E-05  9.99999902E-05  9.99999975E-05  9.99999975E-05  9.99999975E-05  9.99999975E-05  9.99999975E-05  9.99999902E-05  9.99999902E-05  9.99999975E-05  9.99999975E-05  9.99999975E-05  9.99999975E-05  9.99999975E-05  9.99999975E-05  9.99999975E-05  9.99999975E-05  9.99999975E-05  9.99999975E-05  9.99999975E-05  9.99999975E-05  9.99999975E-05  9.99999975E-05  9.99999975E-05  9.99999946E-05  9.99999946E-05  9.99999975E-05  9.99999975E-05  9.99999975E-05  9.99999975E-05  9.99999975E-05  9.99999975E-05  9.99999975E-05  9.99999902E-05  9.99999829E-05  9.99999829E-05  9.99999902E-05  9.99999902E-05  9.99999902E-05  9.99999902E-05  9.99999975E-05  9.99999975E-05  9.99999975E-05  9.99999975E-05  9.99999975E-05  9.99999975E-05  9.99999975E-05  9.99999975E-05  9.99999975E-05  9.99999975E-05
      9.99999902E-05  9.99999902E-05  9.99999902E-05  9.99999902E-05  9.99999902E-05  9.99999902E-05  9.99999902E-05  9.99999975E-05  9.99999975E-05  9.99999975E-05  9.99999975E-05  9.99999975E-05  9.99999975E-05  9.99999975E-05  9.99999975E-05  9.99999975E-05  9.99999975E-05  9.99999975E-05  9.99999975E-05  9.99999975E-05  9.99999975E-05  9.99999902E-05  9.99999902E-05  9.99999902E-05  9.99999902E-05  9.99999902E-05  9.99999902E-05  9.99999902E-05  9.99999902E-05  9.99999902E-05  9.99999902E-05  9.99999975E-05  9.99999975E-05  9.99999975E-05  9.99999975E-05  9.99999975E-05  9.99999975E-05  9.99999902E-05  9.99999902E-05  9.99999902E-05  9.99999902E-05  9.99999902E-05  9.99999902E-05  9.99999902E-05  9.99999902E-05  9.99999902E-05  9.99999902E-05  9.99999902E-05  9.99999902E-05  9.99999902E-05  9.99999975E-05  9.99999975E-05  9.99999975E-05  9.99999975E-05  9.99999975E-05  9.99999975E-05  9.99999975E-05  9.99999902E-05  9.99999975E-05  9.99999975E-05  9.99999975E-05  9.99999975E-05  9.99999975E-05  9.99999975E-05  9.99999975E-05  9.99999975E-05  9.99999975E-05  9.99999975E-05  9.99999975E-05  9.99999975E-05  9.99999975E-05  9.99999975E-05  9.99999975E-05  9.99999946E-05  9.99999946E-05  9.99999946E-05  9.99999946E-05  9.99999975E-05  9.99999975E-05  9.99999975E-05  9.99999902E-05  9.99999975E-05  9.99999975E-05  9.99999902E-05  9.99999829E-05  9.99999829E-05  9.99999902E-05  9.99999902E-05  9.99999902E-05  9.99999902E-05  9.99999902E-05  9.99999975E-05  9.99999975E-05  9.99999975E-05  9.99999975E-05  9.99999975E-05  9.99999975E-05  9.99999975E-05  9.99999975E-05  9.99999975E-05
      9.99999902E-05  9.99999902E-05  9.99999902E-05  9.99999902E-05  9.99999902E-05  9.99999902E-05  9.99999902E-05  9.99999975E-05  9.99999975E-05  9.99999975E-05  9.99999975E-05  9.99999975E-05  9.99999975E-05  9.99999975E-05  9.99999975E-05  9.99999975E-05  9.99999975E-05  9.99999975E-05  9.99999975E-05  9.99999975E-05  9.99999975E-05  9.99999902E-05  9.99999902E-05  9.99999902E-05  9.99999902E-05  9.99999902E-05  9.99999902E-05  9.99999902E-05  9.99999902E-05  9.99999902E-05  9.99999975E-05  9.99999975E-05  9.99999975E-05  9.99999975E-05  9.99999975E-05  9.99999975E-05  9.99999975E-05  9.99999975E-05  9.99999975E-05  9.99999902E-05  9.99999975E-05  9.99999902E-05  9.99999902E-05  9.99999902E-05  9.99999902E-05  9.99999902E-05  9.99999975E-05  9.99999975E-05  9.99999975E-05  9.99999975E-05  9.99999975E-05  9.99999975E-05  9.99999975E-05  9.99999975E-05  9.99999975E-05  9.99999975E-05  9.99999902E-05  9.99999975E-05  9.99999975E-05  9.99999975E-05  9.99999975E-05  9.99999975E-05  9.99999975E-05  9.99999975E-05  9.99999975E-05  9.99999975E-05  9.99999975E-05  9.99999975E-05  9.99999975E-05  9.99999975E-05  9.99999975E-05  9.99999975E-05  9.99999946E-05  9.99999946E-05  9.99999946E-05  9.99999946E-05  9.99999946E-05  9.99999975E-05  9.99999975E-05  9.99999975E-05  9.99999975E-05  9.99999975E-05  9.99999975E-05  9.99999902E-05  9.99999829E-05  9.99999829E-05  9.99999902E-05  9.99999902E-05  9.99999902E-05  9.99999902E-05  9.99999902E-05  9.99999902E-05  9.99999975E-05  9.99999975E-05  9.99999975E-05  9.99999975E-05  9.99999975E-05  9.99999975E-05  9.99999975E-05  9.99999975E-05
      9.99999829E-05  9.99999829E-05  9.99999829E-05  9.99999829E-05  9.99999902E-05  9.99999902E-05  9.99999902E-05  9.99999902E-05  9.99999975E-05  9.99999975E-05  9.99999975E-05  9.99999975E-05  9.99999975E-05  9.99999975E-05  9.99999975E-05  9.99999975E-05  9.99999975E-05  9.99999975E-05  9.99999975E-05  9.99999975E-05  9.99999975E-05  9.99999975E-05  9.99999975E-05  9.99999975E-05  9.99999902E-05  9.99999902E-05  9.99999902E-05  9.99999902E-05  9.99999975E-05  9.99999975E-05  9.99999975E-05  9.99999975E-05  9.99999975E-05  9.99999975E-05  9.99999975E-05  9.99999975E-05  9.99999975E-05  9.99999975E-05  9.99999975E-05  9.99999975E-05  9.99999975E-05  9.99999975E-05  9.99999975E-05  9.99999975E-05  9.99999975E-05  9.99999975E-05  9.99999975E-05  9.99999975E-05  9.99999975E-05  9.99999975E-05  9.99999975E-05  9.99999975E-05  9.99999975E-05  9.99999975E-05  9.99999975E-05  9.99999902E-05  9.99999902E-05  9.99999975E-05  9.99999975E-05  9.99999975E-05  9.99999975E-05  9.99999975E-05  9.99999975E-05  9.99999975E-05  9.99999975E-05  9.99999975E-05  9.99999975E-05  9.99999975E-05  9.99999975E-05  9.99999975E-05  9.99999975E-05  9.99999975E-05  9.99999946E-05  9.99999946E-05  9.99999946E-05  9.99999946E-05  9.99999946E-05  9.99999975E-05  9.99999975E-05  9.99999975E-05  9.99999975E-05  9.99999975E-05  9.99999975E-05  9.99999902E-05  9.99999829E-05  9.99999829E-05  9.99999829E-05  9.99999902E-05  9.99999902E-05  9.99999902E-05  9.99999902E-05  9.99999902E-05  9.99999902E-05  9.99999975E-05  9.99999975E-05  9.99999975E-05  9.99999975E-05  9.99999975E-05  9.99999975E-05  9.99999975E-05
      9.99999829E-05  9.99999829E-05  9.99999829E-05  9.99999829E-05  9.99999829E-05  9.99999829E-05  9.99999902E-05  9.99999902E-05  9.99999975E-05  9.99999975E-05  9.99999975E-05  9.99999975E-05  9.99999975E-05  9.99999975E-05  9.99999975E-05  9.99999975E-05  9.99999975E-05  9.99999975E-05  9.99999975E-05  9.99999975E-05  9.99999975E-05  9.99999975E-05  9.99999975E-05  9.99999975E-05  9.99999975E-05  9.99999975E-05  9.99999975E-05  9.99999975E-05  9.99999975E-05  9.99999975E-05  9.99999975E-05  9.99999975E-05  9.99999975E-05  9.99999975E-05  9.99999975E-05  9.99999975E-05  9.99999975E-05  9.99999975E-05  9.99999975E-05  9.99999975E-05  9.99999975E-05  9.99999975E-05  9.99999975E-05  9.99999975E-05  9.99999975E-05  9.99999975E-05  9.99999975E-05  9.99999975E-05  9.99999975E-05  9.99999975E-05  9.99999975E-05  9.99999975E-05  9.99999975E-05  9.99999975E-05  9.99999902E-05  9.99999902E-05  9.99999975E-05  9.99999975E-05  9.99999975E-05  9.99999975E-05  9.99999975E-05  9.99999975E-05  9.99999975E-05  9.99999975E-05  9.99999975E-05  9.99999975E-05  9.99999975E-05  9.99999975E-05  9.99999975E-05  9.99999975E-05  9.99999975E-05  9.99999975E-05  9.99999946E-05  9.99999946E-05  9.99999946E-05  9.99999946E-05  9.99999946E-05  9.99999975E-05  9.99999975E-05  9.99999975E-05  9.99999902E-05  9.99999975E-05  9.99999975E-05  9.99999902E-05  9.99999902E-05  9.99999829E-05  9.99999829E-05  9.99999829E-05  9.99999902E-05  9.99999829E-05  9.99999902E-05  9.99999902E-05  9.99999902E-05  9.99999902E-05  9.99999902E-05  9.99999975E-05  9.99999975E-05  9.99999975E-05  9.99999975E-05  9.99999975E-05