# File generated by Flopy version 3.9.2 on 02/26/2025 at 11:01:03.
BEGIN options
  SAVE_FLOWS
END options

BEGIN dimensions
  MAXBOUND  290
END dimensions

BEGIN period  1
  1 1 1 1
  1 2 1 1
  1 3 1 1
  1 4 1 1
  1 5 1 1
  1 6 1 1
  1 7 1 1
  1 8 1 1
  1 9 1 1
  1 10 1 1
  1 11 1 1
  1 12 1 1
  1 13 1 1
  1 14 1 1
  1 15 1 1
  1 16 1 1
  1 17 1 1
  1 18 1 1
  1 19 1 1
  1 20 1 1
  1 21 1 1
  1 22 1 1
  1 23 1 1
  1 24 1 1
  1 25 1 1
  1 26 1 1
  1 27 1 1
  1 28 1 1
  1 29 1 1
  1 30 1 1
  1 31 1 1
  1 32 1 1
  1 33 1 1
  1 34 1 1
  1 35 1 1
  1 36 1 1
  1 37 1 1
  1 38 1 1
  1 39 1 1
  1 40 1 1
  1 44 1 1
  1 45 1 1
  1 46 1 1
  1 47 1 1
  1 48 1 1
  1 49 1 1
  1 50 1 1
  2 1 1 1
  2 2 1 1
  2 3 1 1
  2 4 1 1
  2 5 1 1
  2 6 1 1
  2 7 1 1
  2 8 1 1
  2 9 1 1
  2 10 1 1
  2 11 1 1
  2 12 1 1
  2 13 1 1
  2 14 1 1
  2 15 1 1
  2 16 1 1
  2 17 1 1
  2 18 1 1
  2 19 1 1
  2 20 1 1
  2 21 1 1
  2 22 1 1
  2 23 1 1
  2 24 1 1
  2 25 1 1
  2 26 1 1
  2 27 1 1
  2 28 1 1
  2 29 1 1
  2 30 1 1
  2 31 1 1
  2 32 1 1
  2 33 1 1
  2 34 1 1
  2 35 1 1
  2 36 1 1
  2 37 1 1
  2 38 1 1
  2 46 1 1
  2 47 1 1
  2 48 1 1
  2 49 1 1
  2 50 1 1
  3 1 1 1
  3 2 1 1
  3 3 1 1
  3 4 1 1
  3 5 1 1
  3 6 1 1
  3 7 1 1
  3 8 1 1
  3 9 1 1
  3 10 1 1
  3 11 1 1
  3 12 1 1
  3 13 1 1
  3 14 1 1
  3 15 1 1
  3 16 1 1
  3 17 1 1
  3 18 1 1
  3 19 1 1
  3 20 1 1
  3 21 1 1
  3 22 1 1
  3 23 1 1
  3 24 1 1
  3 25 1 1
  3 26 1 1
  3 27 1 1
  3 28 1 1
  3 29 1 1
  3 30 1 1
  3 31 1 1
  3 32 1 1
  3 33 1 1
  3 34 1 1
  3 35 1 1
  3 36 1 1
  3 37 1 1
  3 38 1 1
  3 39 1 1
  3 40 1 1
  3 41 1 1
  3 42 1 1
  3 43 1 1
  3 44 1 1
  3 45 1 1
  3 46 1 1
  3 47 1 1
  3 48 1 1
  3 49 1 1
  3 50 1 1
  1 1 100 0
  1 2 100 0
  1 3 100 0
  1 4 100 0
  1 5 100 0
  1 6 100 0
  1 7 100 0
  1 8 100 0
  1 9 100 0
  1 10 100 0
  1 11 100 0
  1 12 100 0
  1 13 100 0
  1 14 100 0
  1 15 100 0
  1 16 100 0
  1 17 100 0
  1 18 100 0
  1 19 100 0
  1 20 100 0
  1 21 100 0
  1 22 100 0
  1 23 100 0
  1 24 100 0
  1 25 100 0
  1 26 100 0
  1 27 100 0
  1 28 100 0
  1 29 100 0
  1 30 100 0
  1 31 100 0
  1 32 100 0
  1 33 100 0
  1 34 100 0
  1 35 100 0
  1 36 100 0
  1 37 100 0
  1 38 100 0
  1 39 100 0
  1 40 100 0
  1 41 100 0
  1 42 100 0
  1 43 100 0
  1 44 100 0
  1 45 100 0
  1 46 100 0
  1 47 100 0
  1 48 100 0
  1 49 100 0
  1 50 100 0
  2 1 100 0
  2 2 100 0
  2 3 100 0
  2 4 100 0
  2 5 100 0
  2 6 100 0
  2 7 100 0
  2 8 100 0
  2 9 100 0
  2 10 100 0
  2 11 100 0
  2 12 100 0
  2 13 100 0
  2 14 100 0
  2 15 100 0
  2 16 100 0
  2 17 100 0
  2 18 100 0
  2 19 100 0
  2 20 100 0
  2 21 100 0
  2 22 100 0
  2 23 100 0
  2 24 100 0
  2 25 100 0
  2 26 100 0
  2 27 100 0
  2 28 100 0
  2 29 100 0
  2 30 100 0
  2 31 100 0
  2 32 100 0
  2 33 100 0
  2 34 100 0
  2 35 100 0
  2 36 100 0
  2 37 100 0
  2 38 100 0
  2 39 100 0
  2 40 100 0
  2 41 100 0
  2 42 100 0
  2 43 100 0
  2 44 100 0
  2 45 100 0
  2 46 100 0
  2 47 100 0
  2 48 100 0
  2 49 100 0
  2 50 100 0
  3 1 100 0
  3 2 100 0
  3 3 100 0
  3 4 100 0
  3 5 100 0
  3 6 100 0
  3 7 100 0
  3 8 100 0
  3 9 100 0
  3 10 100 0
  3 11 100 0
  3 12 100 0
  3 13 100 0
  3 14 100 0
  3 15 100 0
  3 16 100 0
  3 17 100 0
  3 18 100 0
  3 19 100 0
  3 20 100 0
  3 21 100 0
  3 22 100 0
  3 23 100 0
  3 24 100 0
  3 25 100 0
  3 26 100 0
  3 27 100 0
  3 28 100 0
  3 29 100 0
  3 30 100 0
  3 31 100 0
  3 32 100 0
  3 33 100 0
  3 34 100 0
  3 35 100 0
  3 36 100 0
  3 37 100 0
  3 38 100 0
  3 39 100 0
  3 40 100 0
  3 41 100 0
  3 42 100 0
  3 43 100 0
  3 44 100 0
  3 45 100 0
  3 46 100 0
  3 47 100 0
  3 48 100 0
  3 49 100 0
  3 50 100 0
END period  1

