# File generated by Flopy version 3.9.2 on 03/06/2025 at 15:24:08.
BEGIN options
  SAVE_FLOWS
  SAVE_SPECIFIC_DISCHARGE
  SAVE_SATURATION
END options

BEGIN griddata
  icelltype
    CONSTANT  0
  k  LAYERED
    INTERNAL  FACTOR  1.0
      9.99999902E-05  9.99999902E-05  9.99999902E-05  9.99999975E-05  9.99999975E-05  9.99999975E-05  9.99999975E-05  9.99999975E-05  9.99999975E-05  9.99999975E-05  9.99999975E-05  9.99999975E-05  9.99999975E-05  9.99999975E-05  9.99999975E-05  9.99999975E-05  9.99999902E-05  9.99999902E-05  9.99999902E-05  9.99999902E-05  9.99999902E-05  9.99999902E-05  9.99999975E-05  9.99999975E-05  9.99999975E-05  9.99999975E-05  9.99999975E-05  9.99999975E-05  9.99999902E-05  9.99999902E-05  9.99999902E-05  9.99999902E-05  9.99999902E-05  9.99999975E-05  9.99999975E-05  9.99999975E-05  9.99999975E-05  9.99999975E-05  9.99999975E-05  9.99999902E-05  9.99999902E-05  9.99999902E-05  9.99999902E-05  9.99999902E-05  9.99999902E-05  9.99999902E-05  9.99999902E-05  9.99999902E-05  9.99999902E-05  9.99999902E-05  9.99999902E-05  9.99999975E-05  9.99999975E-05  9.99999975E-05  9.99999975E-05  9.99999975E-05  9.99999975E-05  9.99999902E-05  9.99999975E-05  9.99999975E-05  9.99999975E-05  9.99999975E-05  9.99999975E-05  9.99999975E-05  9.99999975E-05  9.99999975E-05  9.99999975E-05  9.99999975E-05  9.99999975E-05  9.99999975E-05  9.99999975E-05  9.99999975E-05  9.99999975E-05  9.99999975E-05  9.99999975E-05  9.99999975E-05  9.99999975E-05  9.99999975E-05  9.99999975E-05  9.99999902E-05  9.99999902E-05  9.99999975E-05  9.99999975E-05  9.99999975E-05  9.99999975E-05  9.99999975E-05  9.99999975E-05  9.99999975E-05  9.99999975E-05  9.99999975E-05  9.99999975E-05  9.99999975E-05  9.99999975E-05  9.99999975E-05  9.99999975E-05  9.99999975E-05  9.99999975E-05  9.99999975E-05  9.99999975E-05  9.99999975E-05
      9.99999902E-05  9.99999902E-05  9.99999902E-05  9.99999975E-05  9.99999975E-05  9.99999975E-05  9.99999975E-05  9.99999975E-05  9.99999975E-05  9.99999975E-05  9.99999975E-05  9.99999975E-05  9.99999975E-05  9.99999975E-05  9.99999975E-05  9.99999975E-05  9.99999902E-05  9.99999902E-05  9.99999902E-05  9.99999902E-05  9.99999902E-05  9.99999902E-05  9.99999975E-05  9.99999975E-05  9.99999975E-05  9.99999975E-05  9.99999975E-05  9.99999902E-05  9.99999902E-05  9.99999902E-05  9.99999902E-05  9.99999902E-05  9.99999902E-05  9.99999902E-05  9.99999902E-05  9.99999902E-05  9.99999902E-05  9.99999902E-05  9.99999902E-05  9.99999902E-05  9.99999902E-05  9.99999902E-05  9.99999902E-05  9.99999902E-05  9.99999902E-05  9.99999902E-05  9.99999902E-05  9.99999902E-05  9.99999902E-05  9.99999902E-05  9.99999902E-05  9.99999902E-05  9.99999975E-05  9.99999975E-05  9.99999975E-05  9.99999975E-05  9.99999975E-05  9.99999902E-05  9.99999902E-05  9.99999975E-05  9.99999975E-05  9.99999975E-05  9.99999975E-05  9.99999975E-05  9.99999975E-05  9.99999975E-05  9.99999975E-05  9.99999975E-05  9.99999975E-05  9.99999975E-05  9.99999975E-05  9.99999975E-05  9.99999975E-05  9.99999975E-05  9.99999975E-05  9.99999975E-05  9.99999975E-05  9.99999975E-05  9.99999902E-05  9.99999902E-05  9.99999975E-05  9.99999975E-05  9.99999975E-05  9.99999975E-05  9.99999975E-05  9.99999975E-05  9.99999975E-05  9.99999975E-05  9.99999975E-05  9.99999975E-05  9.99999975E-05  9.99999975E-05  9.99999975E-05  9.99999975E-05  9.99999975E-05  9.99999975E-05  9.99999975E-05  9.99999975E-05  9.99999975E-05  9.99999975E-05
      9.99999902E-05  9.99999902E-05  9.99999902E-05  9.99999975E-05  9.99999975E-05  9.99999975E-05  9.99999975E-05  9.99999975E-05  9.99999975E-05  9.99999975E-05  9.99999975E-05  9.99999975E-05  9.99999975E-05  9.99999975E-05  9.99999975E-05  9.99999902E-05  9.99999902E-05  9.99999902E-05  9.99999902E-05  9.99999902E-05  9.99999902E-05  9.99999975E-05  9.99999975E-05  9.99999975E-05  9.99999975E-05  9.99999975E-05  9.99999902E-05  9.99999902E-05  9.99999902E-05  9.99999902E-05  9.99999902E-05  9.99999902E-05  9.99999902E-05  9.99999902E-05  9.99999902E-05  9.99999902E-05  9.99999902E-05  9.99999902E-05  9.99999902E-05  9.99999902E-05  9.99999902E-05  9.99999902E-05  9.99999902E-05  9.99999902E-05  9.99999902E-05  9.99999902E-05  9.99999902E-05  9.99999902E-05  9.99999902E-05  9.99999902E-05  9.99999902E-05  9.99999902E-05  9.99999902E-05  9.99999975E-05  9.99999975E-05  9.99999975E-05  9.99999975E-05  9.99999902E-05  9.99999902E-05  9.99999975E-05  9.99999975E-05  9.99999975E-05  9.99999975E-05  9.99999975E-05  9.99999975E-05  9.99999975E-05  9.99999975E-05  9.99999975E-05  9.99999975E-05  9.99999975E-05  9.99999975E-05  9.99999975E-05  9.99999975E-05  9.99999975E-05  9.99999975E-05  9.99999975E-05  9.99999975E-05  9.99999902E-05  9.99999902E-05  9.99999975E-05  9.99999975E-05  9.99999975E-05  9.99999975E-05  9.99999975E-05  9.99999975E-05  9.99999975E-05  9.99999975E-05  9.99999975E-05  9.99999975E-05  9.99999975E-05  9.99999975E-05  9.99999975E-05  9.99999975E-05  9.99999975E-05  9.99999975E-05  9.99999975E-05  9.99999975E-05  9.99999975E-05  9.99999975E-05  9.99999975E-05
      9.99999902E-05  9.99999902E-05  9.99999975E-05  9.99999975E-05  9.99999975E-05  9.99999975E-05  9.99999975E-05  9.99999975E-05  9.99999975E-05  9.99999975E-05  9.99999975E-05  9.99999975E-05  9.99999975E-05  9.99999975E-05  9.99999975E-05  9.99999902E-05  9.99999902E-05  9.99999902E-05  9.99999902E-05  9.99999902E-05  9.99999975E-05  9.99999975E-05  9.99999975E-05  9.99999975E-05  9.99999975E-05  9.99999902E-05  9.99999902E-05  9.99999829E-05  9.99999829E-05  9.99999829E-05  9.99999829E-05  9.99999829E-05  9.99999829E-05  9.99999902E-05  9.99999902E-05  9.99999902E-05  9.99999902E-05  9.99999902E-05  9.99999902E-05  9.99999902E-05  9.99999902E-05  9.99999902E-05  9.99999902E-05  9.99999902E-05  9.99999902E-05  9.99999902E-05  9.99999902E-05  9.99999902E-05  9.99999902E-05  9.99999902E-05  9.99999902E-05  9.99999902E-05  9.99999902E-05  9.99999975E-05  9.99999975E-05  9.99999975E-05  9.99999975E-05  9.99999975E-05  9.99999902E-05  9.99999975E-05  9.99999975E-05  9.99999975E-05  9.99999975E-05  9.99999975E-05  9.99999975E-05  9.99999975E-05  9.99999975E-05  9.99999975E-05  9.99999975E-05  9.99999975E-05  9.99999975E-05  9.99999975E-05  9.99999975E-05  9.99999975E-05  9.99999975E-05  9.99999902E-05  9.99999902E-05  9.99999902E-05  9.99999975E-05  9.99999975E-05  9.99999975E-05  9.99999975E-05  9.99999975E-05  9.99999975E-05  9.99999975E-05  9.99999975E-05  9.99999975E-05  9.99999975E-05  9.99999975E-05  9.99999975E-05  9.99999975E-05  9.99999975E-05  9.99999975E-05  9.99999975E-05  9.99999975E-05  9.99999975E-05  9.99999975E-05  9.99999975E-05  9.99999975E-05  9.99999975E-05
      9.99999902E-05  9.99999975E-05  9.99999975E-05  9.99999975E-05  9.99999975E-05  9.99999975E-05  9.99999975E-05  9.99999975E-05  9.99999975E-05  9.99999975E-05  9.99999975E-05  9.99999975E-05  9.99999975E-05  9.99999975E-05  9.99999975E-05  9.99999902E-05  9.99999902E-05  9.99999902E-05  9.99999902E-05  9.99999975E-05  9.99999975E-05  9.99999975E-05  9.99999975E-05  9.99999975E-05  9.99999902E-05  9.99999902E-05  9.99999829E-05  9.99999829E-05  9.99999829E-05  9.99999829E-05  9.99999829E-05  9.99999829E-05  9.99999829E-05  9.99999829E-05  9.99999902E-05  9.99999902E-05  9.99999902E-05  9.99999902E-05  9.99999902E-05  9.99999902E-05  9.99999902E-05  9.99999902E-05  9.99999902E-05  9.99999902E-05  9.99999902E-05  9.99999902E-05  9.99999902E-05  9.99999902E-05  9.99999902E-05  9.99999902E-05  9.99999902E-05  9.99999902E-05  9.99999902E-05  9.99999975E-05  9.99999975E-05  9.99999975E-05  9.99999975E-05  9.99999975E-05  9.99999975E-05  9.99999902E-05  9.99999975E-05  9.99999975E-05  9.99999975E-05  9.99999975E-05  9.99999975E-05  9.99999975E-05  9.99999975E-05  9.99999975E-05  9.99999975E-05  9.99999975E-05  9.99999975E-05  9.99999975E-05  9.99999975E-05  9.99999975E-05  9.99999975E-05  9.99999902E-05  9.99999975E-05  9.99999975E-05  9.99999975E-05  9.99999975E-05  9.99999975E-05  9.99999975E-05  9.99999975E-05  9.99999975E-05  9.99999975E-05  9.99999975E-05  9.99999975E-05  9.99999975E-05  9.99999975E-05  9.99999975E-05  9.99999975E-05  9.99999975E-05  9.99999975E-05  9.99999975E-05  9.99999975E-05  9.99999975E-05  9.99999975E-05  9.99999975E-05  9.99999975E-05  9.99999975E-05
      9.99999975E-05  9.99999975E-05  9.99999975E-05  9.99999975E-05  9.99999975E-05  9.99999975E-05  9.99999975E-05  9.99999975E-05  9.99999975E-05  9.99999975E-05  9.99999975E-05  9.99999975E-05  9.99999975E-05  9.99999975E-05  9.99999975E-05  9.99999975E-05  9.99999902E-05  9.99999902E-05  9.99999975E-05  9.99999975E-05  9.99999975E-05  9.99999975E-05  9.99999902E-05  9.99999902E-05  9.99999902E-05  9.99999829E-05  9.99999829E-05  9.99999829E-05  9.99999829E-05  9.99999829E-05  9.99999829E-05  9.99999829E-05  9.99999829E-05  9.99999829E-05  9.99999902E-05  9.99999902E-05  9.99999902E-05  9.99999902E-05  9.99999902E-05  9.99999902E-05  9.99999902E-05  9.99999902E-05  9.99999902E-05  9.99999902E-05  9.99999902E-05  9.99999829E-05  9.99999829E-05  9.99999829E-05  9.99999902E-05  9.99999902E-05  9.99999902E-05  9.99999902E-05  9.99999902E-05  9.99999902E-05  9.99999975E-05  9.99999975E-05  9.99999975E-05  9.99999975E-05  9.99999975E-05  9.99999902E-05  9.99999975E-05  9.99999975E-05  9.99999975E-05  9.99999975E-05  9.99999975E-05  9.99999975E-05  9.99999975E-05  9.99999975E-05  9.99999975E-05  9.99999975E-05  9.99999975E-05  9.99999975E-05  9.99999975E-05  9.99999975E-05  9.99999902E-05  9.99999902E-05  9.99999975E-05  9.99999975E-05  9.99999975E-05  9.99999975E-05  9.99999975E-05  9.99999975E-05  9.99999975E-05  9.99999975E-05  9.99999975E-05  9.99999975E-05  9.99999975E-05  9.99999975E-05  9.99999975E-05  9.99999975E-05  9.99999975E-05  9.99999975E-05  9.99999975E-05  9.99999975E-05  9.99999975E-05  9.99999975E-05  9.99999975E-05  9.99999975E-05  9.99999975E-05  9.99999975E-05
      9.99999975E-05  9.99999975E-05  9.99999975E-05  9.99999975E-05  9.99999975E-05  9.99999975E-05  9.99999975E-05  9.99999975E-05  9.99999975E-05  9.99999975E-05  9.99999975E-05  9.99999975E-05  9.99999975E-05  9.99999975E-05  9.99999975E-05  9.99999975E-05  9.99999902E-05  9.99999975E-05  9.99999975E-05  9.99999975E-05  9.99999975E-05  9.99999975E-05  9.99999902E-05  9.99999902E-05  9.99999829E-05  9.99999829E-05  9.99999829E-05  9.99999829E-05  9.99999829E-05  9.99999829E-05  9.99999829E-05  9.99999829E-05  9.99999829E-05  9.99999829E-05  9.99999902E-05  9.99999902E-05  9.99999902E-05  9.99999902E-05  9.99999902E-05  9.99999902E-05  9.99999902E-05  9.99999902E-05  9.99999902E-05  9.99999902E-05  9.99999902E-05  9.99999829E-05  9.99999829E-05  9.99999902E-05  9.99999902E-05  9.99999902E-05  9.99999902E-05  9.99999902E-05  9.99999902E-05  9.99999902E-05  9.99999975E-05  9.99999975E-05  9.99999975E-05  9.99999975E-05  9.99999975E-05  9.99999902E-05  9.99999975E-05  9.99999975E-05  9.99999975E-05  9.99999975E-05  9.99999975E-05  9.99999975E-05  9.99999975E-05  9.99999975E-05  9.99999975E-05  9.99999975E-05  9.99999975E-05  9.99999975E-05  9.99999975E-05  9.99999975E-05  9.99999902E-05  9.99999902E-05  9.99999975E-05  9.99999975E-05  9.99999975E-05  9.99999975E-05  9.99999975E-05  9.99999975E-05  9.99999975E-05  9.99999975E-05  9.99999975E-05  9.99999975E-05  9.99999975E-05  9.99999975E-05  9.99999975E-05  9.99999975E-05  9.99999975E-05  9.99999975E-05  9.99999975E-05  9.99999975E-05  9.99999975E-05  9.99999975E-05  9.99999975E-05  9.99999975E-05  9.99999975E-05  9.99999975E-05
      9.99999975E-05  9.99999975E-05  9.99999975E-05  9.99999975E-05  9.99999975E-05  9.99999975E-05  9.99999975E-05  9.99999975E-05  9.99999975E-05  9.99999975E-05  9.99999975E-05  9.99999975E-05  9.99999975E-05  9.99999975E-05  9.99999975E-05  9.99999975E-05  9.99999975E-05  9.99999975E-05  9.99999975E-05  9.99999975E-05  9.99999975E-05  9.99999902E-05  9.99999902E-05  9.99999902E-05  9.99999829E-05  9.99999829E-05  9.99999829E-05  9.99999829E-05  9.99999829E-05  9.99999829E-05  9.99999829E-05  9.99999829E-05  9.99999829E-05  9.99999829E-05  9.99999902E-05  9.99999902E-05  9.99999902E-05  9.99999902E-05  9.99999902E-05  9.99999902E-05  9.99999902E-05  9.99999902E-05  9.99999902E-05  9.99999829E-05  9.99999829E-05  9.99999829E-05  9.99999829E-05  9.99999902E-05  9.99999902E-05  9.99999902E-05  9.99999902E-05  9.99999902E-05  9.99999902E-05  9.99999902E-05  9.99999902E-05  9.99999975E-05  9.99999975E-05  9.99999975E-05  9.99999975E-05  9.99999902E-05  9.99999975E-05  9.99999975E-05  9.99999975E-05  9.99999975E-05  9.99999975E-05  9.99999975E-05  9.99999975E-05  9.99999975E-05  9.99999975E-05  9.99999975E-05  9.99999975E-05  9.99999975E-05  9.99999975E-05  9.99999902E-05  9.99999902E-05  9.99999975E-05  9.99999975E-05  9.99999902E-05  9.99999902E-05  9.99999902E-05  9.99999975E-05  9.99999975E-05  9.99999975E-05  9.99999975E-05  9.99999975E-05  9.99999975E-05  9.99999975E-05  9.99999975E-05  9.99999975E-05  9.99999975E-05  9.99999975E-05  9.99999975E-05  9.99999975E-05  9.99999975E-05  9.99999975E-05  9.99999975E-05  9.99999975E-05  9.99999975E-05  9.99999975E-05  9.99999975E-05
      9.99999975E-05  9.99999975E-05  9.99999975E-05  9.99999975E-05  9.99999975E-05  9.99999975E-05  9.99999975E-05  9.99999975E-05  9.99999975E-05  9.99999975E-05  9.99999975E-05  9.99999975E-05  9.99999975E-05  9.99999975E-05  9.99999975E-05  9.99999975E-05  9.99999975E-05  9.99999975E-05  9.99999975E-05  9.99999975E-05  9.99999975E-05  9.99999902E-05  9.99999902E-05  9.99999902E-05  9.99999829E-05  9.99999829E-05  9.99999829E-05  9.99999829E-05  9.99999829E-05  9.99999829E-05  9.99999829E-05  9.99999829E-05  9.99999829E-05  9.99999829E-05  9.99999902E-05  9.99999902E-05  9.99999902E-05  9.99999902E-05  9.99999902E-05  9.99999902E-05  9.99999902E-05  9.99999902E-05  9.99999902E-05  9.99999829E-05  9.99999829E-05  9.99999829E-05  9.99999829E-05  9.99999902E-05  9.99999902E-05  9.99999902E-05  9.99999902E-05  9.99999902E-05  9.99999902E-05  9.99999902E-05  9.99999975E-05  9.99999975E-05  9.99999975E-05  9.99999975E-05  9.99999902E-05  9.99999902E-05  9.99999975E-05  9.99999975E-05  9.99999975E-05  9.99999975E-05  9.99999975E-05  9.99999975E-05  9.99999975E-05  9.99999975E-05  9.99999975E-05  9.99999975E-05  9.99999975E-05  9.99999975E-05  9.99999975E-05  9.99999902E-05  9.99999975E-05  9.99999975E-05  9.99999975E-05  9.99999975E-05  9.99999975E-05  9.99999975E-05  9.99999902E-05  9.99999975E-05  9.99999975E-05  9.99999975E-05  9.99999975E-05  9.99999975E-05  9.99999975E-05  9.99999975E-05  9.99999975E-05  9.99999975E-05  9.99999975E-05  9.99999975E-05  9.99999975E-05  9.99999975E-05  9.99999975E-05  9.99999975E-05  9.99999975E-05  9.99999975E-05  9.99999975E-05  9.99999975E-05
      9.99999975E-05  9.99999975E-05  9.99999975E-05  9.99999975E-05  9.99999975E-05  9.99999975E-05  9.99999975E-05  9.99999975E-05  9.99999975E-05  9.99999975E-05  9.99999975E-05  9.99999975E-05  9.99999975E-05  9.99999975E-05  9.99999975E-05  9.99999975E-05  9.99999975E-05  9.99999975E-05  9.99999975E-05  9.99999975E-05  9.99999975E-05  9.99999902E-05  9.99999902E-05  9.99999829E-05  9.99999829E-05  9.99999829E-05  9.99999829E-05  9.99999829E-05  9.99999829E-05  9.99999829E-05  9.99999829E-05  9.99999829E-05  9.99999829E-05  9.99999829E-05  9.99999902E-05  9.99999902E-05  9.99999902E-05  9.99999902E-05  9.99999902E-05  9.99999902E-05  9.99999902E-05  9.99999902E-05  9.99999829E-05  9.99999829E-05  9.99999829E-05  9.99999829E-05  9.99999902E-05  9.99999902E-05  9.99999902E-05  9.99999902E-05  9.99999902E-05  9.99999902E-05  9.99999902E-05  9.99999902E-05  9.99999975E-05  9.99999975E-05  9.99999975E-05  9.99999975E-05  9.99999902E-05  9.99999975E-05  9.99999975E-05  9.99999975E-05  9.99999975E-05  9.99999975E-05  9.99999975E-05  9.99999975E-05  9.99999975E-05  9.99999975E-05  9.99999975E-05  9.99999975E-05  9.99999975E-05  9.99999975E-05  9.99999975E-05  9.99999902E-05  9.99999975E-05  9.99999975E-05  9.99999975E-05  9.99999975E-05  9.99999975E-05  9.99999975E-05  9.99999902E-05  9.99999975E-05  9.99999975E-05  9.99999975E-05  9.99999975E-05  9.99999975E-05  9.99999902E-05  9.99999902E-05  9.99999975E-05  9.99999975E-05  9.99999975E-05  9.99999975E-05  9.99999975E-05  9.99999975E-05  9.99999975E-05  9.99999975E-05  9.99999975E-05  9.99999975E-05  9.99999975E-05  9.99999975E-05
      9.99999975E-05  9.99999975E-05  9.99999975E-05  9.99999975E-05  9.99999975E-05  9.99999975E-05  9.99999975E-05  9.99999975E-05  9.99999975E-05  9.99999975E-05  9.99999975E-05  9.99999975E-05  9.99999975E-05  9.99999975E-05  9.99999975E-05  9.99999975E-05  9.99999975E-05  9.99999975E-05  9.99999975E-05  9.99999975E-05  9.99999975E-05  9.99999902E-05  9.99999902E-05  9.99999902E-05  9.99999829E-05  9.99999829E-05  9.99999829E-05  9.99999829E-05  9.99999829E-05  9.99999829E-05  9.99999829E-05  9.99999829E-05  9.99999829E-05  9.99999829E-05  9.99999902E-05  9.99999902E-05  9.99999902E-05  9.99999902E-05  9.99999902E-05  9.99999902E-05  9.99999902E-05  9.99999902E-05  9.99999829E-05  9.99999829E-05  9.99999829E-05  9.99999902E-05  9.99999902E-05  9.99999902E-05  9.99999902E-05  9.99999902E-05  9.99999902E-05  9.99999902E-05  9.99999902E-05  9.99999902E-05  9.99999975E-05  9.99999975E-05  9.99999975E-05  9.99999975E-05  9.99999902E-05  9.99999975E-05  9.99999975E-05  9.99999975E-05  9.99999975E-05  9.99999975E-05  9.99999975E-05  9.99999975E-05  9.99999975E-05  9.99999975E-05  9.99999975E-05  9.99999975E-05  9.99999975E-05  9.99999975E-05  9.99999975E-05  9.99999975E-05  9.99999975E-05  9.99999975E-05  9.99999975E-05  9.99999975E-05  9.99999975E-05  9.99999975E-05  9.99999975E-05  9.99999975E-05  9.99999975E-05  9.99999975E-05  9.99999902E-05  9.99999902E-05  9.99999902E-05  9.99999902E-05  9.99999902E-05  9.99999975E-05  9.99999975E-05  9.99999975E-05  9.99999975E-05  9.99999975E-05  9.99999975E-05  9.99999975E-05  9.99999975E-05  9.99999975E-05  9.99999975E-05  9.99999975E-05
      9.99999975E-05  9.99999975E-05  9.99999975E-05  9.99999975E-05  9.99999975E-05  9.99999975E-05  9.99999975E-05  9.99999975E-05  9.99999975E-05  9.99999975E-05  9.99999975E-05  9.99999975E-05  9.99999975E-05  9.99999975E-05  9.99999975E-05  9.99999975E-05  9.99999975E-05  9.99999975E-05  9.99999975E-05  9.99999975E-05  9.99999975E-05  9.99999902E-05  9.99999902E-05  9.99999902E-05  9.99999829E-05  9.99999829E-05  9.99999829E-05  9.99999829E-05  9.99999829E-05  9.99999829E-05  9.99999829E-05  9.99999829E-05  9.99999902E-05  9.99999902E-05  9.99999902E-05  9.99999902E-05  9.99999902E-05  9.99999902E-05  9.99999902E-05  9.99999902E-05  9.99999902E-05  9.99999902E-05  9.99999829E-05  9.99999829E-05  9.99999902E-05  9.99999902E-05  9.99999902E-05  9.99999902E-05  9.99999829E-05  9.99999829E-05  9.99999902E-05  9.99999902E-05  9.99999902E-05  9.99999975E-05  9.99999975E-05  9.99999975E-05  9.99999975E-05  9.99999975E-05  9.99999902E-05  9.99999975E-05  9.99999975E-05  9.99999975E-05  9.99999975E-05  9.99999975E-05  9.99999975E-05  9.99999975E-05  9.99999975E-05  9.99999975E-05  9.99999975E-05  9.99999975E-05  9.99999975E-05  9.99999975E-05  9.99999975E-05  9.99999975E-05  9.99999975E-05  9.99999975E-05  9.99999975E-05  9.99999975E-05  9.99999975E-05  9.99999975E-05  9.99999975E-05  9.99999902E-05  9.99999975E-05  9.99999902E-05  9.99999902E-05  9.99999902E-05  9.99999902E-05  9.99999902E-05  9.99999902E-05  9.99999902E-05  9.99999975E-05  9.99999975E-05  9.99999975E-05  9.99999975E-05  9.99999975E-05  9.99999975E-05  9.99999975E-05  9.99999975E-05  9.99999975E-05  9.99999975E-05
      9.99999902E-05  9.99999902E-05  9.99999902E-05  9.99999902E-05  9.99999902E-05  9.99999902E-05  9.99999902E-05  9.99999975E-05  9.99999975E-05  9.99999975E-05  9.99999975E-05  9.99999975E-05  9.99999975E-05  9.99999975E-05  9.99999975E-05  9.99999975E-05  9.99999975E-05  9.99999975E-05  9.99999975E-05  9.99999975E-05  9.99999975E-05  9.99999975E-05  9.99999902E-05  9.99999902E-05  9.99999829E-05  9.99999829E-05  9.99999829E-05  9.99999829E-05  9.99999829E-05  9.99999829E-05  9.99999902E-05  9.99999902E-05  9.99999902E-05  9.99999902E-05  9.99999902E-05  9.99999902E-05  9.99999902E-05  9.99999902E-05  9.99999902E-05  9.99999902E-05  9.99999902E-05  9.99999902E-05  9.99999902E-05  9.99999902E-05  9.99999902E-05  9.99999902E-05  9.99999902E-05  9.99999902E-05  9.99999902E-05  9.99999902E-05  9.99999902E-05  9.99999902E-05  9.99999975E-05  9.99999975E-05  9.99999975E-05  9.99999975E-05  9.99999975E-05  9.99999902E-05  9.99999902E-05  9.99999975E-05  9.99999975E-05  9.99999975E-05  9.99999975E-05  9.99999975E-05  9.99999975E-05  9.99999975E-05  9.99999975E-05  9.99999975E-05  9.99999975E-05  9.99999975E-05  9.99999975E-05  9.99999975E-05  9.99999975E-05  9.99999975E-05  9.99999975E-05  9.99999946E-05  9.99999975E-05  9.99999975E-05  9.99999975E-05  9.99999975E-05  9.99999975E-05  9.99999902E-05  9.99999975E-05  9.99999902E-05  9.99999829E-05  9.99999902E-05  9.99999902E-05  9.99999902E-05  9.99999902E-05  9.99999975E-05  9.99999975E-05  9.99999975E-05  9.99999975E-05  9.99999975E-05  9.99999975E-05  9.99999975E-05  9.99999975E-05  9.99999975E-05  9.99999975E-05  9.99999975E-05
      9.99999902E-05  9.99999902E-05  9.99999902E-05  9.99999902E-05  9.99999902E-05  9.99999902E-05  9.99999902E-05  9.99999975E-05  9.99999975E-05  9.99999975E-05  9.99999975E-05  9.99999975E-05  9.99999975E-05  9.99999975E-05  9.99999975E-05  9.99999975E-05  9.99999975E-05  9.99999975E-05  9.99999975E-05  9.99999975E-05  9.99999975E-05  9.99999975E-05  9.99999902E-05  9.99999902E-05  9.99999829E-05  9.99999829E-05  9.99999829E-05  9.99999829E-05  9.99999829E-05  9.99999902E-05  9.99999902E-05  9.99999902E-05  9.99999902E-05  9.99999902E-05  9.99999902E-05  9.99999902E-05  9.99999902E-05  9.99999902E-05  9.99999902E-05  9.99999902E-05  9.99999902E-05  9.99999902E-05  9.99999902E-05  9.99999902E-05  9.99999902E-05  9.99999902E-05  9.99999902E-05  9.99999902E-05  9.99999902E-05  9.99999902E-05  9.99999902E-05  9.99999902E-05  9.99999975E-05  9.99999975E-05  9.99999975E-05  9.99999975E-05  9.99999975E-05  9.99999902E-05  9.99999902E-05  9.99999975E-05  9.99999975E-05  9.99999975E-05  9.99999975E-05  9.99999975E-05  9.99999975E-05  9.99999975E-05  9.99999975E-05  9.99999975E-05  9.99999975E-05  9.99999975E-05  9.99999975E-05  9.99999975E-05  9.99999975E-05  9.99999975E-05  9.99999946E-05  9.99999946E-05  9.99999975E-05  9.99999975E-05  9.99999975E-05  9.99999975E-05  9.99999975E-05  9.99999975E-05  9.99999975E-05  9.99999902E-05  9.99999829E-05  9.99999829E-05  9.99999902E-05  9.99999902E-05  9.99999902E-05  9.99999902E-05  9.99999975E-05  9.99999975E-05  9.99999975E-05  9.99999975E-05  9.99999975E-05  9.99999975E-05  9.99999975E-05  9.99999975E-05  9.99999975E-05  9.99999975E-05
      9.99999902E-05  9.99999902E-05  9.99999902E-05  9.99999902E-05  9.99999902E-05  9.99999902E-05  9.99999902E-05  9.99999975E-05  9.99999975E-05  9.99999975E-05  9.99999975E-05  9.99999975E-05  9.99999975E-05  9.99999975E-05  9.99999975E-05  9.99999975E-05  9.99999975E-05  9.99999975E-05  9.99999975E-05  9.99999975E-05  9.99999975E-05  9.99999902E-05  9.99999902E-05  9.99999902E-05  9.99999902E-05  9.99999902E-05  9.99999902E-05  9.99999902E-05  9.99999902E-05  9.99999902E-05  9.99999902E-05  9.99999975E-05  9.99999975E-05  9.99999975E-05  9.99999975E-05  9.99999975E-05  9.99999975E-05  9.99999902E-05  9.99999902E-05  9.99999902E-05  9.99999902E-05  9.99999902E-05  9.99999902E-05  9.99999902E-05  9.99999902E-05  9.99999902E-05  9.99999902E-05  9.99999902E-05  9.99999902E-05  9.99999902E-05  9.99999975E-05  9.99999975E-05  9.99999975E-05  9.99999975E-05  9.99999975E-05  9.99999975E-05  9.99999975E-05  9.99999902E-05  9.99999975E-05  9.99999975E-05  9.99999975E-05  9.99999975E-05  9.99999975E-05  9.99999975E-05  9.99999975E-05  9.99999975E-05  9.99999975E-05  9.99999975E-05  9.99999975E-05  9.99999975E-05  9.99999975E-05  9.99999975E-05  9.99999975E-05  9.99999946E-05  9.99999946E-05  9.99999946E-05  9.99999946E-05  9.99999975E-05  9.99999975E-05  9.99999975E-05  9.99999902E-05  9.99999975E-05  9.99999975E-05  9.99999902E-05  9.99999829E-05  9.99999829E-05  9.99999902E-05  9.99999902E-05  9.99999902E-05  9.99999902E-05  9.99999902E-05  9.99999975E-05  9.99999975E-05  9.99999975E-05  9.99999975E-05  9.99999975E-05  9.99999975E-05  9.99999975E-05  9.99999975E-05  9.99999975E-05
      9.99999902E-05  9.99999902E-05  9.99999902E-05  9.99999902E-05  9.99999902E-05  9.99999902E-05  9.99999902E-05  9.99999975E-05  9.99999975E-05  9.99999975E-05  9.99999975E-05  9.99999975E-05  9.99999975E-05  9.99999975E-05  9.99999975E-05  9.99999975E-05  9.99999975E-05  9.99999975E-05  9.99999975E-05  9.99999975E-05  9.99999975E-05  9.99999902E-05  9.99999902E-05  9.99999902E-05  9.99999902E-05  9.99999902E-05  9.99999902E-05  9.99999902E-05  9.99999902E-05  9.99999902E-05  9.99999975E-05  9.99999975E-05  9.99999975E-05  9.99999975E-05  9.99999975E-05  9.99999975E-05  9.99999975E-05  9.99999975E-05  9.99999975E-05  9.99999902E-05  9.99999975E-05  9.99999902E-05  9.99999902E-05  9.99999902E-05  9.99999902E-05  9.99999902E-05  9.99999975E-05  9.99999975E-05  9.99999975E-05  9.99999975E-05  9.99999975E-05  9.99999975E-05  9.99999975E-05  9.99999975E-05  9.99999975E-05  9.99999975E-05  9.99999902E-05  9.99999975E-05  9.99999975E-05  9.99999975E-05  9.99999975E-05  9.99999975E-05  9.99999975E-05  9.99999975E-05  9.99999975E-05  9.99999975E-05  9.99999975E-05  9.99999975E-05  9.99999975E-05  9.99999975E-05  9.99999975E-05  9.99999975E-05  9.99999946E-05  9.99999946E-05  9.99999946E-05  9.99999946E-05  9.99999946E-05  9.99999975E-05  9.99999975E-05  9.99999975E-05  9.99999975E-05  9.99999975E-05  9.99999975E-05  9.99999902E-05  9.99999829E-05  9.99999829E-05  9.99999902E-05  9.99999902E-05  9.99999902E-05  9.99999902E-05  9.99999902E-05  9.99999902E-05  9.99999975E-05  9.99999975E-05  9.99999975E-05  9.99999975E-05  9.99999975E-05  9.99999975E-05  9.99999975E-05  9.99999975E-05
      9.99999829E-05  9.99999829E-05  9.99999829E-05  9.99999829E-05  9.99999902E-05  9.99999902E-05  9.99999902E-05  9.99999902E-05  9.99999975E-05  9.99999975E-05  9.99999975E-05  9.99999975E-05  9.99999975E-05  9.99999975E-05  9.99999975E-05  9.99999975E-05  9.99999975E-05  9.99999975E-05  9.99999975E-05  9.99999975E-05  9.99999975E-05  9.99999975E-05  9.99999975E-05  9.99999975E-05  9.99999902E-05  9.99999902E-05  9.99999902E-05  9.99999902E-05  9.99999975E-05  9.99999975E-05  9.99999975E-05  9.99999975E-05  9.99999975E-05  9.99999975E-05  9.99999975E-05  9.99999975E-05  9.99999975E-05  9.99999975E-05  9.99999975E-05  9.99999975E-05  9.99999975E-05  9.99999975E-05  9.99999975E-05  9.99999975E-05  9.99999975E-05  9.99999975E-05  9.99999975E-05  9.99999975E-05  9.99999975E-05  9.99999975E-05  9.99999975E-05  9.99999975E-05  9.99999975E-05  9.99999975E-05  9.99999975E-05  9.99999902E-05  9.99999902E-05  9.99999975E-05  9.99999975E-05  9.99999975E-05  9.99999975E-05  9.99999975E-05  9.99999975E-05  9.99999975E-05  9.99999975E-05  9.99999975E-05  9.99999975E-05  9.99999975E-05  9.99999975E-05  9.99999975E-05  9.99999975E-05  9.99999975E-05  9.99999946E-05  9.99999946E-05  9.99999946E-05  9.99999946E-05  9.99999946E-05  9.99999975E-05  9.99999975E-05  9.99999975E-05  9.99999975E-05  9.99999975E-05  9.99999975E-05  9.99999902E-05  9.99999829E-05  9.99999829E-05  9.99999829E-05  9.99999902E-05  9.99999902E-05  9.99999902E-05  9.99999902E-05  9.99999902E-05  9.99999902E-05  9.99999975E-05  9.99999975E-05  9.99999975E-05  9.99999975E-05  9.99999975E-05  9.99999975E-05  9.99999975E-05
      9.99999829E-05  9.99999829E-05  9.99999829E-05  9.99999829E-05  9.99999829E-05  9.99999829E-05  9.99999902E-05  9.99999902E-05  9.99999975E-05  9.99999975E-05  9.99999975E-05  9.99999975E-05  9.99999975E-05  9.99999975E-05  9.99999975E-05  9.99999975E-05  9.99999975E-05  9.99999975E-05  9.99999975E-05  9.99999975E-05  9.99999975E-05  9.99999975E-05  9.99999975E-05  9.99999975E-05  9.99999975E-05  9.99999975E-05  9.99999975E-05  9.99999975E-05  9.99999975E-05  9.99999975E-05  9.99999975E-05  9.99999975E-05  9.99999975E-05  9.99999975E-05  9.99999975E-05  9.99999975E-05  9.99999975E-05  9.99999975E-05  9.99999975E-05  9.99999975E-05  9.99999975E-05  9.99999975E-05  9.99999975E-05  9.99999975E-05  9.99999975E-05  9.99999975E-05  9.99999975E-05  9.99999975E-05  9.99999975E-05  9.99999975E-05  9.99999975E-05  9.99999975E-05  9.99999975E-05  9.99999975E-05  9.99999902E-05  9.99999902E-05  9.99999975E-05  9.99999975E-05  9.99999975E-05  9.99999975E-05  9.99999975E-05  9.99999975E-05  9.99999975E-05  9.99999975E-05  9.99999975E-05  9.99999975E-05  9.99999975E-05  9.99999975E-05  9.99999975E-05  9.99999975E-05  9.99999975E-05  9.99999975E-05  9.99999946E-05  9.99999946E-05  9.99999946E-05  9.99999946E-05  9.99999946E-05  9.99999975E-05  9.99999975E-05  9.99999975E-05  9.99999902E-05  9.99999975E-05  9.99999975E-05  9.99999902E-05  9.99999902E-05  9.99999829E-05  9.99999829E-05  9.99999829E-05  9.99999902E-05  9.99999829E-05  9.99999902E-05  9.99999902E-05  9.99999902E-05  9.99999902E-05  9.99999902E-05  9.99999975E-05  9.99999975E-05  9.99999975E-05  9.99999975E-05  9.99999975E-05