# File generated by Flopy version 3.9.2 on 03/06/2025 at 15:24:08.
BEGIN options
END options

BEGIN griddata
  strt
    CONSTANT       1.00000000
END griddata

