# File generated by Flopy version 3.9.2 on 03/11/2025 at 13:30:58.
BEGIN options
END options

BEGIN griddata
  strt
    CONSTANT       1.00000000
END griddata

