# File generated by Flopy version 3.9.2 on 02/28/2025 at 14:10:56.
BEGIN options
END options

BEGIN packages
  OC6  test.oc  oc
  IC6  test.ic  ic
  DIS6  test.dis  dis
  NPF6  test.npf  npf
  CHD6  test.chd  chd-1
  CHD6  test_0.chd  chd-2
END packages

