# File generated by Flopy version 3.9.2 on 02/26/2025 at 11:01:02.
BEGIN options
  XORIGIN       0.00000000
  YORIGIN       0.00000000
  ANGROT       0.00000000
END options

BEGIN dimensions
  NLAY  4
  NROW  50
  NCOL  100
END dimensions

BEGIN griddata
  delr
    CONSTANT       1.50000000
  delc
    CONSTANT       1.50000000
  top
    INTERNAL  FACTOR  1.0
        -7.50000000      -7.50000000      -7.50000000      -7.50000000      -7.50000000      -7.50000000      -7.50000000      -7.50000000      -7.50000000      -7.50000000      -7.50000000      -7.50000000      -7.50000000      -7.50000000      -7.50000000      -7.50000000      -7.50000000      -7.50000000      -7.50000000      -7.50000000      -7.50000000      -7.50000000      -7.50000000      -7.50000000      -7.50000000      -7.50000000      -7.50000000      -7.50000000      -7.50000000      -7.50000000      -7.50000000      -7.50000000      -7.50000000      -7.50000000      -7.50000000      -7.50000000      -7.50000000      -7.50000000      -7.50000000      -7.50000000      -7.50000000      -7.50000000      -7.50000000      -7.50000000      -7.50000000      -7.50000000      -7.50000000      -7.50000000      -7.50000000      -7.50000000      -7.50000000      -7.50000000      -7.50000000      -7.50000000      -7.50000000      -7.50000000      -7.50000000      -7.50000000      -7.50000000      -7.50000000      -7.50000000      -7.50000000      -7.50000000      -7.50000000      -7.50000000      -7.50000000      -7.50000000      -7.50000000      -7.50000000      -7.50000000      -7.50000000      -7.50000000      -7.50000000      -7.50000000      -7.50000000      -7.50000000      -7.50000000      -7.50000000      -7.50000000      -7.50000000      -7.50000000      -7.50000000      -7.50000000      -7.50000000      -7.50000000      -7.50000000      -7.50000000      -7.50000000      -7.50000000      -7.50000000      -7.50000000      -7.50000000      -7.50000000      -7.50000000      -7.50000000      -7.50000000      -7.50000000      -7.50000000      -7.50000000      -7.50000000
        -7.50000000      -7.50000000      -7.50000000      -7.50000000      -7.50000000      -7.50000000      -7.50000000      -7.50000000      -7.50000000      -7.50000000      -7.50000000      -7.50000000      -7.50000000      -7.50000000      -7.50000000      -7.50000000      -7.50000000      -7.50000000      -7.50000000      -7.50000000      -7.50000000      -7.50000000      -7.50000000      -7.50000000      -7.50000000      -7.50000000      -7.50000000      -7.50000000      -7.50000000      -7.50000000      -7.50000000      -7.50000000      -7.50000000      -7.50000000      -7.50000000      -7.50000000      -7.50000000      -7.50000000      -7.50000000      -7.50000000      -7.50000000      -7.50000000      -7.50000000      -7.50000000      -7.50000000      -7.50000000      -7.50000000      -7.50000000      -7.50000000      -7.50000000      -7.50000000      -7.50000000      -7.50000000      -7.50000000      -7.50000000      -7.50000000      -7.50000000      -7.50000000      -7.50000000      -7.50000000      -7.50000000      -7.50000000      -7.50000000      -7.50000000      -7.50000000      -7.50000000      -7.50000000      -7.50000000      -7.50000000      -7.50000000      -7.50000000      -7.50000000      -7.50000000      -7.50000000      -7.50000000      -7.50000000      -7.50000000      -7.50000000      -7.50000000      -7.50000000      -7.50000000      -7.50000000      -7.50000000      -7.50000000      -7.50000000      -7.50000000      -7.50000000      -7.50000000      -7.50000000      -7.50000000      -7.50000000      -7.50000000      -7.50000000      -7.50000000      -7.50000000      -7.50000000      -7.50000000      -7.50000000      -7.50000000      -7.50000000
        -7.50000000      -7.50000000      -7.50000000      -7.50000000      -7.50000000      -7.50000000      -7.50000000      -7.50000000      -7.50000000      -7.50000000      -7.50000000      -7.50000000      -7.50000000      -7.50000000      -7.50000000      -7.50000000      -7.50000000      -7.50000000      -7.50000000      -7.50000000      -7.50000000      -7.50000000      -7.50000000      -7.50000000      -7.50000000      -7.50000000      -7.50000000      -7.50000000      -7.50000000      -7.50000000      -7.50000000      -7.50000000      -7.50000000      -7.50000000      -7.50000000      -7.50000000      -7.50000000      -7.50000000      -7.50000000      -7.50000000      -7.50000000      -7.50000000      -7.50000000      -7.50000000      -7.50000000      -7.50000000      -7.50000000      -7.50000000      -7.50000000      -7.50000000      -7.50000000      -7.50000000      -7.50000000      -7.50000000      -7.50000000      -7.50000000      -7.50000000      -7.50000000      -7.50000000      -7.50000000      -7.50000000      -7.50000000      -7.50000000      -7.50000000      -7.50000000      -7.50000000      -7.50000000      -7.50000000      -7.50000000      -7.50000000      -7.50000000      -7.50000000      -7.50000000      -7.50000000      -7.50000000      -7.50000000      -7.50000000      -7.50000000      -7.50000000      -7.50000000      -7.50000000      -7.50000000      -7.50000000      -7.50000000      -7.50000000      -7.50000000      -7.50000000      -7.50000000      -7.50000000      -7.50000000      -7.50000000      -7.50000000      -7.50000000      -7.50000000      -7.50000000      -7.50000000      -7.50000000      -7.50000000      -7.50000000      -7.50000000
        -7.50000000      -7.50000000      -7.50000000      -7.50000000      -7.50000000      -7.50000000      -7.50000000      -7.50000000      -7.50000000      -7.50000000      -7.50000000      -7.50000000      -7.50000000      -7.50000000      -7.50000000      -7.50000000      -7.50000000      -7.50000000      -7.50000000      -7.50000000      -7.50000000      -7.50000000      -7.50000000      -7.50000000      -7.50000000      -7.50000000      -7.50000000      -7.50000000      -7.50000000      -7.50000000      -7.50000000      -7.50000000      -7.50000000      -7.50000000      -7.50000000      -7.50000000      -7.50000000      -7.50000000      -7.50000000      -7.50000000      -7.50000000      -7.50000000      -7.50000000      -7.50000000      -7.50000000      -7.50000000      -7.50000000      -7.50000000      -7.50000000      -7.50000000      -7.50000000      -7.50000000      -7.50000000      -7.50000000      -7.50000000      -7.50000000      -7.50000000      -7.50000000      -7.50000000      -7.50000000      -7.50000000      -7.50000000      -7.50000000      -7.50000000      -7.50000000      -7.50000000      -7.50000000      -7.50000000      -7.50000000      -7.50000000      -7.50000000      -7.50000000      -7.50000000      -7.50000000      -7.50000000      -7.50000000      -7.50000000      -7.50000000      -7.50000000      -7.50000000      -7.50000000      -7.50000000      -7.50000000      -7.50000000      -7.50000000      -7.50000000      -7.50000000      -7.50000000      -7.50000000      -7.50000000      -7.50000000      -7.50000000      -7.50000000      -7.50000000      -7.50000000      -7.50000000      -7.50000000      -7.50000000      -7.50000000      -7.50000000
        -7.50000000      -7.50000000      -7.50000000      -7.50000000      -7.50000000      -7.50000000      -7.50000000      -7.50000000      -7.50000000      -7.50000000      -7.50000000      -7.50000000      -7.50000000      -7.50000000      -7.50000000      -7.50000000      -7.50000000      -7.50000000      -7.50000000      -7.50000000      -7.50000000      -7.50000000      -7.50000000      -7.50000000      -7.50000000      -7.50000000      -7.50000000      -7.50000000      -7.50000000      -7.50000000      -7.50000000      -7.50000000      -7.50000000      -7.50000000      -7.50000000      -7.50000000      -7.50000000      -7.50000000      -7.50000000      -7.50000000      -7.50000000      -7.50000000      -7.50000000      -7.50000000      -7.50000000      -7.50000000      -7.50000000      -7.50000000      -7.50000000      -7.50000000      -7.50000000      -7.50000000      -7.50000000      -7.50000000      -7.50000000      -7.50000000      -7.50000000      -7.50000000      -7.50000000      -7.50000000      -7.50000000      -7.50000000      -7.50000000      -7.50000000      -7.50000000      -7.50000000      -7.50000000      -7.50000000      -7.50000000      -7.50000000      -7.50000000      -7.50000000      -7.50000000      -7.50000000      -7.50000000      -7.50000000      -7.50000000      -7.50000000      -7.50000000      -7.50000000      -7.50000000      -7.50000000      -7.50000000      -7.50000000      -7.50000000      -7.50000000      -7.50000000      -7.50000000      -7.50000000      -7.50000000      -7.50000000      -7.50000000      -7.50000000      -7.50000000      -7.50000000      -7.50000000      -7.50000000      -7.50000000      -7.50000000      -7.50000000
        -7.50000000      -7.50000000      -7.50000000      -7.50000000      -7.50000000      -7.50000000      -7.50000000      -7.50000000      -7.50000000      -7.50000000      -7.50000000      -7.50000000      -7.50000000      -7.50000000      -7.50000000      -7.50000000      -7.50000000      -7.50000000      -7.50000000      -7.50000000      -7.50000000      -7.50000000      -7.50000000      -7.50000000      -7.50000000      -7.50000000      -7.50000000      -7.50000000      -7.50000000      -7.50000000      -7.50000000      -7.50000000      -7.50000000      -7.50000000      -7.50000000      -7.50000000      -7.50000000      -7.50000000      -7.50000000      -7.50000000      -7.50000000      -7.50000000      -7.50000000      -7.50000000      -7.50000000      -7.50000000      -7.50000000      -7.50000000      -7.50000000      -7.50000000      -7.50000000      -7.50000000      -7.50000000      -7.50000000      -7.50000000      -7.50000000      -7.50000000      -7.50000000      -7.50000000      -7.50000000      -7.50000000      -7.50000000      -7.50000000      -7.50000000      -7.50000000      -7.50000000      -7.50000000      -7.50000000      -7.50000000      -7.50000000      -7.50000000      -7.50000000      -7.50000000      -7.50000000      -7.50000000      -7.50000000      -7.50000000      -7.50000000      -7.50000000      -7.50000000      -7.50000000      -7.50000000      -7.50000000      -7.50000000      -7.50000000      -7.50000000      -7.50000000      -7.50000000      -7.50000000      -7.50000000      -7.50000000      -7.50000000      -7.50000000      -7.50000000      -7.50000000      -7.50000000      -7.50000000      -7.50000000      -7.50000000      -7.50000000
        -7.50000000      -7.50000000      -7.50000000      -7.50000000      -7.50000000      -7.50000000      -7.50000000      -7.50000000      -7.50000000      -7.50000000      -7.50000000      -7.50000000      -7.50000000      -7.50000000      -7.50000000      -7.50000000      -7.50000000      -7.50000000      -7.50000000      -7.50000000      -7.50000000      -7.50000000      -7.50000000      -7.50000000      -7.50000000      -7.50000000      -7.50000000      -7.50000000      -7.50000000      -7.50000000      -7.50000000      -7.50000000      -7.50000000      -7.50000000      -7.50000000      -7.50000000      -7.50000000      -7.50000000      -7.50000000      -7.50000000      -7.50000000      -7.50000000      -7.50000000      -7.50000000      -7.50000000      -7.50000000      -7.50000000      -7.50000000      -7.50000000      -7.50000000      -7.50000000      -7.50000000      -7.50000000      -7.50000000      -7.50000000      -7.50000000      -7.50000000      -7.50000000      -7.50000000      -7.50000000      -7.50000000      -7.50000000      -7.50000000      -7.50000000      -7.50000000      -7.50000000      -7.50000000      -7.50000000      -7.50000000      -7.50000000      -7.50000000      -7.50000000      -7.50000000      -7.50000000      -7.50000000      -7.50000000      -7.50000000      -7.50000000      -7.50000000      -7.50000000      -7.50000000      -7.50000000      -7.50000000      -7.50000000      -7.50000000      -7.50000000      -7.50000000      -7.50000000      -7.50000000      -7.50000000      -7.50000000      -7.50000000      -7.50000000      -7.50000000      -7.50000000      -7.50000000      -7.50000000      -7.50000000      -7.50000000      -7.50000000
        -7.50000000      -7.50000000      -7.50000000      -7.50000000      -7.50000000      -7.50000000      -7.50000000      -7.50000000      -7.50000000      -7.50000000      -7.50000000      -7.50000000      -7.50000000      -7.50000000      -7.50000000      -7.50000000      -7.50000000      -7.50000000      -7.50000000      -7.50000000      -7.50000000      -7.50000000      -7.50000000      -7.50000000      -7.50000000      -7.50000000      -7.50000000      -7.50000000      -7.50000000      -7.50000000      -7.50000000      -7.50000000      -7.50000000      -7.50000000      -7.50000000      -7.50000000      -7.50000000      -7.50000000      -7.50000000      -7.50000000      -7.50000000      -7.50000000      -7.50000000      -7.50000000      -7.50000000      -7.50000000      -7.50000000      -7.50000000      -7.50000000      -7.50000000      -7.50000000      -7.50000000      -7.50000000      -7.50000000      -7.50000000      -7.50000000      -7.50000000      -7.50000000      -7.50000000      -7.50000000      -7.50000000      -7.50000000      -7.50000000      -7.50000000      -7.50000000      -7.50000000      -7.50000000      -7.50000000      -7.50000000      -7.50000000      -7.50000000      -7.50000000      -7.50000000      -7.50000000      -7.50000000      -7.50000000      -7.50000000      -7.50000000      -7.50000000      -7.50000000      -7.50000000      -7.50000000      -7.50000000      -7.50000000      -7.50000000      -7.50000000      -7.50000000      -7.50000000      -7.50000000      -7.50000000      -7.50000000      -7.50000000      -7.50000000      -7.50000000      -7.50000000      -7.50000000      -7.50000000      -7.50000000      -7.50000000      -7.50000000
        -7.50000000      -7.50000000      -7.50000000      -7.50000000      -7.50000000      -7.50000000      -7.50000000      -7.50000000      -7.50000000      -7.50000000      -7.50000000      -7.50000000      -7.50000000      -7.50000000      -7.50000000      -7.50000000      -7.50000000      -7.50000000      -7.50000000      -7.50000000      -7.50000000      -7.50000000      -7.50000000      -7.50000000      -7.50000000      -7.50000000      -7.50000000      -7.50000000      -7.50000000      -7.50000000      -7.50000000      -7.50000000      -7.50000000      -7.50000000      -7.50000000      -7.50000000      -7.50000000      -7.50000000      -7.50000000      -7.50000000      -7.50000000      -7.50000000      -7.50000000      -7.50000000      -7.50000000      -7.50000000      -7.50000000      -7.50000000      -7.50000000      -7.50000000      -7.50000000      -7.50000000      -7.50000000      -7.50000000      -7.50000000      -7.50000000      -7.50000000      -7.50000000      -7.50000000      -7.50000000      -7.50000000      -7.50000000      -7.50000000      -7.50000000      -7.50000000      -7.50000000      -7.50000000      -7.50000000      -7.50000000      -7.50000000      -7.50000000      -7.50000000      -7.50000000      -7.50000000      -7.50000000      -7.50000000      -7.50000000      -7.50000000      -7.50000000      -7.50000000      -7.50000000      -7.50000000      -7.50000000      -7.50000000      -7.50000000      -7.50000000      -7.50000000      -7.50000000      -7.50000000      -7.50000000      -7.50000000      -7.50000000      -7.50000000      -7.50000000      -7.50000000      -7.50000000      -7.50000000      -7.50000000      -7.50000000      -7.50000000
        -7.50000000      -7.50000000      -7.50000000      -7.50000000      -7.50000000      -7.50000000      -7.50000000      -7.50000000      -7.50000000      -7.50000000      -7.50000000      -7.50000000      -7.50000000      -7.50000000      -7.50000000      -7.50000000      -7.50000000      -7.50000000      -7.50000000      -7.50000000      -7.50000000      -7.50000000      -7.50000000      -7.50000000      -7.50000000      -7.50000000      -7.50000000      -7.50000000      -7.50000000      -7.50000000      -7.50000000      -7.50000000      -7.50000000      -7.50000000      -7.50000000      -7.50000000      -7.50000000      -7.50000000      -7.50000000      -7.50000000      -7.50000000      -7.50000000      -7.50000000      -7.50000000      -7.50000000      -7.50000000      -7.50000000      -7.50000000      -7.50000000      -7.50000000      -7.50000000      -7.50000000      -7.50000000      -7.50000000      -7.50000000      -7.50000000      -7.50000000      -7.50000000      -7.50000000      -7.50000000      -7.50000000      -7.50000000      -7.50000000      -7.50000000      -7.50000000      -7.50000000      -7.50000000      -7.50000000      -7.50000000      -7.50000000      -7.50000000      -7.50000000      -7.50000000      -7.50000000      -7.50000000      -7.50000000      -7.50000000      -7.50000000      -7.50000000      -7.50000000      -7.50000000      -7.50000000      -7.50000000      -7.50000000      -7.50000000      -7.50000000      -7.50000000      -7.50000000      -7.50000000      -7.50000000      -7.50000000      -7.50000000      -7.50000000      -7.50000000      -7.50000000      -7.50000000      -7.50000000      -7.50000000      -7.50000000      -7.50000000
        -7.50000000      -7.50000000      -7.50000000      -7.50000000      -7.50000000      -7.50000000      -7.50000000      -7.50000000      -7.50000000      -7.50000000      -7.50000000      -7.50000000      -7.50000000      -7.50000000      -7.50000000      -7.50000000      -7.50000000      -7.50000000      -7.50000000      -7.50000000      -7.50000000      -7.50000000      -7.50000000      -7.50000000      -7.50000000      -7.50000000      -7.50000000      -7.50000000      -7.50000000      -7.50000000      -7.50000000      -7.50000000      -7.50000000      -7.50000000      -7.50000000      -7.50000000      -7.50000000      -7.50000000      -7.50000000      -7.50000000      -7.50000000      -7.50000000      -7.50000000      -7.50000000      -7.50000000      -7.50000000      -7.50000000      -7.50000000      -7.50000000      -7.50000000      -7.50000000      -7.50000000      -7.50000000      -7.50000000      -7.50000000      -7.50000000      -7.50000000      -7.50000000      -7.50000000      -7.50000000      -7.50000000      -7.50000000      -7.50000000      -7.50000000      -7.50000000      -7.50000000      -7.50000000      -7.50000000      -7.50000000      -7.50000000      -7.50000000      -7.50000000      -7.50000000      -7.50000000      -7.50000000      -7.50000000      -7.50000000      -7.50000000      -7.50000000      -7.50000000      -7.50000000      -7.50000000      -7.50000000      -7.50000000      -7.50000000      -7.50000000      -7.50000000      -7.50000000      -7.50000000      -7.50000000      -7.50000000      -7.50000000      -7.50000000      -7.50000000      -7.50000000      -7.50000000      -7.50000000      -7.50000000      -7.50000000      -7.50000000
        -7.50000000      -7.50000000      -7.50000000      -7.50000000      -7.50000000      -7.50000000      -7.50000000      -7.50000000      -7.50000000      -7.50000000      -7.50000000      -7.50000000      -7.50000000      -7.50000000      -7.50000000      -7.50000000      -7.50000000      -7.50000000      -7.50000000      -7.50000000      -7.50000000      -7.50000000      -7.50000000      -7.50000000      -7.50000000      -7.50000000      -7.50000000      -7.50000000      -7.50000000      -7.50000000      -7.50000000      -7.50000000      -7.50000000      -7.50000000      -7.50000000      -7.50000000      -7.50000000      -7.50000000      -7.50000000      -7.50000000      -7.50000000      -7.50000000      -7.50000000      -7.50000000      -7.50000000      -7.50000000      -7.50000000      -7.50000000      -7.50000000      -7.50000000      -7.50000000      -7.50000000      -7.50000000      -7.50000000      -7.50000000      -7.50000000      -7.50000000      -7.50000000      -7.50000000      -7.50000000      -7.50000000      -7.50000000      -7.50000000      -7.50000000      -7.50000000      -7.50000000      -7.50000000      -7.50000000      -7.50000000      -7.50000000      -7.50000000      -7.50000000      -7.50000000      -7.50000000      -7.50000000      -7.50000000      -7.50000000      -7.50000000      -7.50000000      -7.50000000      -7.50000000      -7.50000000      -7.50000000      -7.50000000      -7.50000000      -7.50000000      -7.50000000      -7.50000000      -7.50000000      -7.50000000      -7.50000000      -7.50000000      -7.50000000      -7.50000000      -7.50000000      -7.50000000      -7.50000000      -7.50000000      -7.50000000      -7.50000000
        -7.50000000      -7.50000000      -7.50000000      -7.50000000      -7.50000000      -7.50000000      -7.50000000      -7.50000000      -7.50000000      -7.50000000      -7.50000000      -7.50000000      -7.50000000      -7.50000000      -7.50000000      -7.50000000      -7.50000000      -7.50000000      -7.50000000      -7.50000000      -7.50000000      -7.50000000      -7.50000000      -7.50000000      -7.50000000      -7.50000000      -7.50000000      -7.50000000      -7.50000000      -7.50000000      -7.50000000      -7.50000000      -7.50000000      -7.50000000      -7.50000000      -7.50000000      -7.50000000      -7.50000000      -7.50000000      -7.50000000      -7.50000000      -7.50000000      -7.50000000      -7.50000000      -7.50000000      -7.50000000      -7.50000000      -7.50000000      -7.50000000      -7.50000000      -7.50000000      -7.50000000      -7.50000000      -7.50000000      -7.50000000      -7.50000000      -7.50000000      -7.50000000      -7.50000000      -7.50000000      -7.50000000      -7.50000000      -7.50000000      -7.50000000      -7.50000000      -7.50000000      -7.50000000      -7.50000000      -7.50000000      -7.50000000      -7.50000000      -7.50000000      -7.50000000      -7.50000000      -7.50000000      -7.50000000      -7.50000000      -7.50000000      -7.50000000      -7.50000000      -7.50000000      -7.50000000      -7.50000000      -7.50000000      -7.50000000      -7.50000000      -7.50000000      -7.50000000      -7.50000000      -7.50000000      -7.50000000      -7.50000000      -7.50000000      -7.50000000      -7.50000000      -7.50000000      -7.50000000      -7.50000000      -7.50000000      -7.50000000
        -7.50000000      -7.50000000      -7.50000000      -7.50000000      -7.50000000      -7.50000000      -7.50000000      -7.50000000      -7.50000000      -7.50000000      -7.50000000      -7.50000000      -7.50000000      -7.50000000      -7.50000000      -7.50000000      -7.50000000      -7.50000000      -7.50000000      -7.50000000      -7.50000000      -7.50000000      -7.50000000      -7.50000000      -7.50000000      -7.50000000      -7.50000000      -7.50000000      -7.50000000      -7.50000000      -7.50000000      -7.50000000      -7.50000000      -7.50000000      -7.50000000      -7.50000000      -7.50000000      -7.50000000      -7.50000000      -7.50000000      -7.50000000      -7.50000000      -7.50000000      -7.50000000      -7.50000000      -7.50000000      -7.50000000      -7.50000000      -7.50000000      -7.50000000      -7.50000000      -7.50000000      -7.50000000      -7.50000000      -7.50000000      -7.50000000      -7.50000000      -7.50000000      -7.50000000      -7.50000000      -7.50000000      -7.50000000      -7.50000000      -7.50000000      -7.50000000      -7.50000000      -7.50000000      -7.50000000      -7.50000000      -7.50000000      -7.50000000      -7.50000000      -7.50000000      -7.50000000      -7.50000000      -7.47999954      -7.50000000      -7.50000000      -7.50000000      -7.50000000      -7.50000000      -7.50000000      -7.50000000      -7.50000000      -7.50000000      -7.50000000      -7.50000000      -7.50000000      -7.50000000      -7.50000000      -7.50000000      -7.50000000      -7.50000000      -7.50000000      -7.50000000      -7.50000000      -7.50000000      -7.50000000      -7.50000000      -7.50000000
        -7.50000000      -7.50000000      -7.50000000      -7.50000000      -7.50000000      -7.50000000      -7.50000000      -7.50000000      -7.50000000      -7.50000000      -7.50000000      -7.50000000      -7.50000000      -7.50000000      -7.50000000      -7.50000000      -7.50000000      -7.50000000      -7.50000000      -7.50000000      -7.50000000      -7.50000000      -7.50000000      -7.50000000      -7.50000000      -7.50000000      -7.50000000      -7.50000000      -7.50000000      -7.50000000      -7.50000000      -7.50000000      -7.50000000      -7.50000000      -7.50000000      -7.50000000      -7.50000000      -7.50000000      -7.50000000      -7.50000000      -7.50000000      -7.50000000      -7.50000000      -7.50000000      -7.50000000      -7.50000000      -7.50000000      -7.50000000      -7.50000000      -7.50000000      -7.50000000      -7.50000000      -7.50000000      -7.50000000      -7.50000000      -7.50000000      -7.50000000      -7.50000000      -7.50000000      -7.50000000      -7.50000000      -7.50000000      -7.50000000      -7.50000000      -7.50000000      -7.50000000      -7.50000000      -7.50000000      -7.50000000      -7.50000000      -7.50000000      -7.50000000      -7.50000000      -7.47999954      -7.47999954      -7.47999954      -7.47999954      -7.50000000      -7.50000000      -7.50000000      -7.50000000      -7.50000000      -7.50000000      -7.50000000      -7.50000000      -7.50000000      -7.50000000      -7.50000000      -7.50000000      -7.50000000      -7.50000000      -7.50000000      -7.50000000      -7.50000000      -7.50000000      -7.50000000      -7.50000000      -7.50000000      -7.50000000      -7.50000000
        -7.50000000      -7.50000000      -7.50000000      -7.50000000      -7.50000000      -7.50000000      -7.50000000      -7.50000000      -7.50000000      -7.50000000      -7.50000000      -7.50000000      -7.50000000      -7.50000000      -7.50000000      -7.50000000      -7.50000000      -7.50000000      -7.50000000      -7.50000000      -7.50000000      -7.50000000      -7.50000000      -7.50000000      -7.50000000      -7.50000000      -7.50000000      -7.50000000      -7.50000000      -7.50000000      -7.50000000      -7.50000000      -7.50000000      -7.50000000      -7.50000000      -7.50000000      -7.50000000      -7.50000000      -7.50000000      -7.50000000      -7.50000000      -7.50000000      -7.50000000      -7.50000000      -7.50000000      -7.50000000      -7.50000000      -7.50000000      -7.50000000      -7.50000000      -7.50000000      -7.50000000      -7.50000000      -7.50000000      -7.50000000      -7.50000000      -7.50000000      -7.50000000      -7.50000000      -7.50000000      -7.50000000      -7.50000000      -7.50000000      -7.50000000      -7.50000000      -7.50000000      -7.50000000      -7.50000000      -7.50000000      -7.50000000      -7.50000000      -7.50000000      -7.47999954      -7.47999954      -7.47999954      -7.47999954      -7.47999954      -7.50000000      -7.50000000      -7.50000000      -7.50000000      -7.50000000      -7.50000000      -7.50000000      -7.50000000      -7.50000000      -7.50000000      -7.50000000      -7.50000000      -7.50000000      -7.50000000      -7.50000000      -7.50000000      -7.50000000      -7.50000000      -7.50000000      -7.50000000      -7.50000000      -7.50000000      -7.50000000
        -7.50000000      -7.50000000      -7.50000000      -7.50000000      -7.50000000      -7.50000000      -7.50000000      -7.50000000      -7.50000000      -7.50000000      -7.50000000      -7.50000000      -7.50000000      -7.50000000      -7.50000000      -7.50000000      -7.50000000      -7.50000000      -7.50000000      -7.50000000      -7.50000000      -7.50000000      -7.50000000      -7.50000000      -7.50000000      -7.50000000      -7.50000000      -7.50000000      -7.50000000      -7.50000000      -7.50000000      -7.50000000      -7.50000000      -7.50000000      -7.50000000      -7.50000000      -7.50000000      -7.50000000      -7.50000000      -7.50000000      -7.50000000      -7.50000000      -7.50000000      -7.50000000      -7.50000000      -7.50000000      -7.50000000      -7.50000000      -7.50000000      -7.50000000      -7.50000000      -7.50000000      -7.50000000      -7.50000000      -7.50000000      -7.50000000      -7.50000000      -7.50000000      -7.50000000      -7.50000000      -7.50000000      -7.50000000      -7.50000000      -7.50000000      -7.50000000      -7.50000000      -7.50000000      -7.50000000      -7.50000000      -7.50000000      -7.50000000      -7.50000000      -7.47999954      -7.47999954      -7.47999954      -7.47999954      -7.47999954      -7.50000000      -7.50000000      -7.50000000      -7.50000000      -7.50000000      -7.50000000      -7.50000000      -7.50000000      -7.50000000      -7.50000000      -7.50000000      -7.50000000      -7.50000000      -7.50000000      -7.50000000      -7.50000000      -7.50000000      -7.50000000      -7.50000000      -7.50000000      -7.50000000      -7.50000000      -7.50000000