# File generated by Flopy version 3.9.2 on 03/11/2025 at 13:30:58.
BEGIN options
  SAVE_FLOWS
END options

BEGIN dimensions
  MAXBOUND  1
END dimensions

BEGIN period  1
  3 26 34 -1.00000000E-03
END period  1

