# File generated by Flopy version 3.9.1 on 03/07/2025 at 13:04:55.
BEGIN options
END options

BEGIN griddata
  strt
    CONSTANT       1.00000000
END griddata

