# File generated by Flopy version 3.9.2 on 02/28/2025 at 14:10:56.
BEGIN options
END options

BEGIN griddata
  strt
    CONSTANT       1.00000000
END griddata

