# File generated by Flopy version 3.9.2 on 03/10/2025 at 16:01:19.
BEGIN options
END options

BEGIN griddata
  strt
    CONSTANT       1.00000000
END griddata

