# File generated by Flopy version 3.9.1 on 06/09/2025 at 13:01:08.
BEGIN options
  XORIGIN       0.00000000
  YORIGIN       0.00000000
END options

BEGIN dimensions
  NLAY  10
  NCPL  1250
  NVERT  1348
END dimensions

BEGIN griddata
  top
    INTERNAL  FACTOR  1.0
        -7.50000000      -7.50000000      -7.50000000      -7.50000000      -7.50000000      -7.50000000      -7.50000000      -7.50000000      -7.50000000      -7.50000000      -7.50000000      -7.50000000      -7.50000000      -7.50000000      -7.50000000      -7.50000000      -7.50000000      -7.50000000      -7.50000000      -7.50000000
        -7.50000000      -7.50000000      -7.50000000      -7.50000000      -7.50000000      -7.50000000      -7.50000000      -7.50000000      -7.50000000      -7.50000000      -7.50000000      -7.50000000      -7.50000000      -7.50000000      -7.50000000      -7.50000000      -7.50000000      -7.50000000      -7.50000000      -7.50000000
        -7.50000000      -7.50000000      -7.50000000      -7.50000000      -7.50000000      -7.50000000      -7.50000000      -7.50000000      -7.50000000      -7.50000000      -7.50000000      -7.50000000      -7.50000000      -7.50000000      -7.50000000      -7.50000000      -7.50000000      -7.50000000      -7.50000000      -7.50000000
        -7.50000000      -7.50000000      -7.50000000      -7.50000000      -7.50000000      -7.50000000      -7.50000000      -7.50000000      -7.50000000      -7.50000000      -7.50000000      -7.50000000      -7.50000000      -7.50000000      -7.50000000      -7.50000000      -7.50000000      -7.50000000      -7.50000000      -7.50000000
        -7.50000000      -7.50000000      -7.50000000      -7.50000000      -7.50000000      -7.50000000      -7.50000000      -7.50000000      -7.50000000      -7.50000000      -7.50000000      -7.50000000      -7.50000000      -7.50000000      -7.50000000      -7.50000000      -7.50000000      -7.50000000      -7.50000000      -7.50000000
        -7.50000000      -7.50000000      -7.50000000      -7.50000000      -7.50000000      -7.50000000      -7.50000000      -7.50000000      -7.50000000      -7.50000000      -7.50000000      -7.50000000      -7.50000000      -7.50000000      -7.50000000      -7.50000000      -7.50000000      -7.50000000      -7.50000000      -7.50000000
        -7.50000000      -7.50000000      -7.50000000      -7.50000000      -7.50000000      -7.50000000      -7.50000000      -7.50000000      -7.50000000      -7.50000000      -7.50000000      -7.50000000      -7.50000000      -7.50000000      -7.50000000      -7.50000000      -7.50000000      -7.50000000      -7.50000000      -7.50000000
        -7.50000000      -7.50000000      -7.50000000      -7.50000000      -7.50000000      -7.50000000      -7.50000000      -7.50000000      -7.50000000      -7.50000000      -7.50000000      -7.50000000      -7.50000000      -7.50000000      -7.50000000      -7.50000000      -7.50000000      -7.50000000      -7.50000000      -7.50000000
        -7.50000000      -7.50000000      -7.50000000      -7.50000000      -7.50000000      -7.50000000      -7.50000000      -7.50000000      -7.50000000      -7.50000000      -7.50000000      -7.50000000      -7.50000000      -7.50000000      -7.50000000      -7.50000000      -7.50000000      -7.50000000      -7.50000000      -7.50000000
        -7.50000000      -7.50000000      -7.50000000      -7.50000000      -7.50000000      -7.50000000      -7.50000000      -7.50000000      -7.50000000      -7.50000000      -7.50000000      -7.50000000      -7.50000000      -7.50000000      -7.50000000      -7.50000000      -7.50000000      -7.50000000      -7.50000000      -7.50000000
        -7.50000000      -7.50000000      -7.50000000      -7.50000000      -7.50000000      -7.50000000      -7.50000000      -7.50000000      -7.50000000      -7.50000000      -7.50000000      -7.50000000      -7.50000000      -7.50000000      -7.50000000      -7.50000000      -7.50000000      -7.50000000      -7.50000000      -7.50000000
        -7.50000000      -7.50000000      -7.50000000      -7.50000000      -7.50000000      -7.50000000      -7.50000000      -7.50000000      -7.50000000      -7.50000000      -7.50000000      -7.50000000      -7.50000000      -7.50000000      -7.50000000      -7.50000000      -7.50000000      -7.50000000      -7.50000000      -7.50000000
        -7.50000000      -7.50000000      -7.50000000      -7.50000000      -7.50000000      -7.50000000      -7.50000000      -7.50000000      -7.50000000      -7.50000000      -7.50000000      -7.50000000      -7.50000000      -7.50000000      -7.50000000      -7.50000000      -7.50000000      -7.50000000      -7.50000000      -7.50000000
        -7.50000000      -7.50000000      -7.50000000      -7.50000000      -7.50000000      -7.50000000      -7.50000000      -7.50000000      -7.50000000      -7.50000000      -7.50000000      -7.50000000      -7.50000000      -7.50000000      -7.50000000      -7.50000000      -7.50000000      -7.50000000      -7.50000000      -7.50000000
        -7.50000000      -7.50000000      -7.50000000      -7.50000000      -7.50000000      -7.50000000      -7.50000000      -7.50000000      -7.50000000      -7.50000000      -7.50000000      -7.50000000      -7.50000000      -7.50000000      -7.50000000      -7.50000000      -7.50000000      -7.50000000      -7.50000000      -7.50000000
        -7.50000000      -7.50000000      -7.50000000      -7.50000000      -7.50000000      -7.50000000      -7.50000000      -7.50000000      -7.50000000      -7.50000000      -7.50000000      -7.50000000      -7.50000000      -7.50000000      -7.50000000      -7.50000000      -7.50000000      -7.50000000      -7.50000000      -7.50000000
        -7.50000000      -7.50000000      -7.50000000      -7.50000000      -7.50000000      -7.50000000      -7.50000000      -7.50000000      -7.50000000      -7.50000000      -7.50000000      -7.50000000      -7.50000000      -7.50000000      -7.50000000      -7.50000000      -7.50000000      -7.50000000      -7.50000000      -7.50000000
        -7.50000000      -7.50000000      -7.50000000      -7.50000000      -7.50000000      -7.50000000      -7.50000000      -7.50000000      -7.50000000      -7.50000000      -7.50000000      -7.50000000      -7.50000000      -7.50000000      -7.50000000      -7.50000000      -7.50000000      -7.50000000      -7.50000000      -7.50000000
        -7.50000000      -7.50000000      -7.50000000      -7.50000000      -7.50000000      -7.50000000      -7.50000000      -7.50000000      -7.50000000      -7.50000000      -7.50000000      -7.50000000      -7.50000000      -7.50000000      -7.50000000      -7.50000000      -7.50000000      -7.50000000      -7.50000000      -7.50000000
        -7.50000000      -7.50000000      -7.50000000      -7.50000000      -7.50000000      -7.50000000      -7.50000000      -7.50000000      -7.50000000      -7.50000000      -7.50000000      -7.50000000      -7.50000000      -7.50000000      -7.50000000      -7.50000000      -7.50000000      -7.50000000      -7.50000000      -7.50000000
        -7.50000000      -7.50000000      -7.50000000      -7.50000000      -7.50000000      -7.50000000      -7.50000000      -7.50000000      -7.50000000      -7.50000000      -7.50000000      -7.50000000      -7.50000000      -7.50000000      -7.50000000      -7.50000000      -7.50000000      -7.50000000      -7.50000000      -7.50000000
        -7.50000000      -7.50000000      -7.50000000      -7.50000000      -7.50000000      -7.50000000      -7.50000000      -7.50000000      -7.50000000      -7.50000000      -7.50000000      -7.50000000      -7.50000000      -7.50000000      -7.50000000      -7.50000000      -7.50000000      -7.50000000      -7.50000000      -7.50000000
        -7.50000000      -7.50000000      -7.50000000      -7.50000000      -7.50000000      -7.50000000      -7.50000000      -7.50000000      -7.50000000      -7.50000000      -7.50000000      -7.50000000      -7.50000000      -7.50000000      -7.50000000      -7.50000000      -7.50000000      -7.50000000      -7.50000000      -7.50000000
        -7.50000000      -7.50000000      -7.50000000      -7.50000000      -7.50000000      -7.50000000      -7.50000000      -7.50000000      -7.50000000      -7.50000000      -7.50000000      -7.50000000      -7.50000000      -7.50000000      -7.50000000      -7.50000000      -7.50000000      -7.50000000      -7.50000000      -7.50000000
        -7.50000000      -7.50000000      -7.50000000      -7.50000000      -7.50000000      -7.50000000      -7.50000000      -7.50000000      -7.50000000      -7.50000000      -7.50000000      -7.50000000      -7.50000000      -7.50000000      -7.50000000      -7.50000000      -7.50000000      -7.50000000      -7.50000000      -7.50000000
        -7.50000000      -7.50000000      -7.50000000      -7.50000000      -7.50000000      -7.50000000      -7.50000000      -7.50000000      -7.50000000      -7.50000000      -7.50000000      -7.50000000      -7.50000000      -7.50000000      -7.50000000      -7.50000000      -7.50000000      -7.50000000      -7.50000000      -7.50000000
        -7.50000000      -7.50000000      -7.50000000      -7.50000000      -7.50000000      -7.50000000      -7.50000000      -7.50000000      -7.50000000      -7.50000000      -7.50000000      -7.50000000      -7.50000000      -7.50000000      -7.50000000      -7.50000000      -7.50000000      -7.50000000      -7.50000000      -7.50000000
        -7.50000000      -7.50000000      -7.50000000      -7.50000000      -7.50000000      -7.50000000      -7.50000000      -7.50000000      -7.50000000      -7.50000000      -7.50000000      -7.50000000      -7.50000000      -7.50000000      -7.50000000      -7.50000000      -7.50000000      -7.50000000      -7.50000000      -7.50000000
        -7.50000000      -7.50000000      -7.50000000      -7.50000000      -7.50000000      -7.50000000      -7.50000000      -7.50000000      -7.50000000      -7.50000000      -7.50000000      -7.50000000      -7.50000000      -7.50000000      -7.50000000      -7.50000000      -7.50000000      -7.50000000      -7.50000000      -7.50000000
        -7.50000000      -7.50000000      -7.50000000      -7.50000000      -7.50000000      -7.50000000      -7.50000000      -7.50000000      -7.50000000      -7.50000000      -7.50000000      -7.50000000      -7.50000000      -7.50000000      -7.50000000      -7.50000000      -7.50000000      -7.50000000      -7.50000000      -7.50000000
        -7.50000000      -7.50000000      -7.50000000      -7.50000000      -7.50000000      -7.50000000      -7.50000000      -7.50000000      -7.50000000      -7.50000000      -7.50000000      -7.50000000      -7.50000000      -7.50000000      -7.50000000      -7.50000000      -7.50000000      -7.50000000      -7.50000000      -7.50000000
        -7.50000000      -7.50000000      -7.50000000      -7.50000000      -7.50000000      -7.50000000      -7.50000000      -7.50000000      -7.50000000      -7.50000000      -7.50000000      -7.50000000      -7.50000000      -7.50000000      -7.50000000      -7.50000000      -7.50000000      -7.50000000      -7.50000000      -7.50000000
        -7.50000000      -7.50000000      -7.50000000      -7.50000000      -7.50000000      -7.50000000      -7.50000000      -7.50000000      -7.50000000      -7.50000000      -7.50000000      -7.50000000      -7.50000000      -7.50000000      -7.50000000      -7.50000000      -7.50000000      -7.50000000      -7.50000000      -7.50000000
        -7.50000000      -7.50000000      -7.50000000      -7.50000000      -7.50000000      -7.50000000      -7.50000000      -7.50000000      -7.50000000      -7.50000000      -7.50000000      -7.50000000      -7.50000000      -7.50000000      -7.50000000      -7.50000000      -7.50000000      -7.50000000      -7.50000000      -7.50000000
        -7.50000000      -7.50000000      -7.50000000      -7.50000000      -7.50000000      -7.50000000      -7.50000000      -7.50000000      -7.50000000      -7.50000000      -7.50000000      -7.50000000      -7.50000000      -7.50000000      -7.50000000      -7.50000000      -7.50000000      -7.50000000      -7.50000000      -7.50000000
        -7.50000000      -7.50000000      -7.50000000      -7.50000000      -7.50000000      -7.50000000      -7.50000000      -7.50000000      -7.50000000      -7.50000000      -7.50000000      -7.50000000      -7.50000000      -7.50000000      -7.50000000      -7.50000000      -7.50000000      -7.50000000      -7.50000000      -7.50000000
        -7.50000000      -7.50000000      -7.50000000      -7.50000000      -7.50000000      -7.50000000      -7.50000000      -7.50000000      -7.50000000      -7.50000000      -7.50000000      -7.50000000      -7.50000000      -7.50000000      -7.50000000      -7.50000000      -7.50000000      -7.50000000      -7.50000000      -7.50000000
        -7.50000000      -7.50000000      -7.50000000      -7.50000000      -7.50000000      -7.50000000      -7.50000000      -7.50000000      -7.50000000      -7.50000000      -7.50000000      -7.50000000      -7.50000000      -7.50000000      -7.50000000      -7.50000000      -7.50000000      -7.50000000      -7.50000000      -7.50000000
        -7.50000000      -7.50000000      -7.50000000      -7.50000000      -7.50000000      -7.50000000      -7.50000000      -7.50000000      -7.50000000      -7.50000000      -7.50000000      -7.50000000      -7.50000000      -7.50000000      -7.50000000      -7.50000000      -7.50000000      -7.50000000      -7.50000000      -7.50000000
        -7.50000000      -7.50000000      -7.50000000      -7.50000000      -7.50000000      -7.50000000      -7.50000000      -7.50000000      -7.50000000      -7.50000000      -7.50000000      -7.50000000      -7.50000000      -7.50000000      -7.50000000      -7.50000000      -7.50000000      -7.50000000      -7.50000000      -7.50000000
        -7.50000000      -7.50000000      -7.50000000      -7.50000000      -7.50000000      -7.50000000      -7.50000000      -7.50000000      -7.50000000      -7.50000000      -7.50000000      -7.50000000      -7.50000000      -7.50000000      -7.50000000      -7.50000000      -7.50000000      -7.50000000      -7.50000000      -7.50000000
        -7.50000000      -7.50000000      -7.50000000      -7.50000000      -7.50000000      -7.50000000      -7.50000000      -7.50000000      -7.50000000      -7.50000000      -7.50000000      -7.50000000      -7.50000000      -7.50000000      -7.50000000      -7.50000000      -7.50000000      -7.50000000      -7.50000000      -7.50000000
        -7.50000000      -7.50000000      -7.50000000      -7.50000000      -7.50000000      -7.50000000      -7.50000000      -7.50000000      -7.50000000      -7.50000000      -7.50000000      -7.50000000      -7.50000000      -7.50000000      -7.50000000      -7.50000000      -7.50000000      -7.50000000      -7.50000000      -7.50000000
        -7.50000000      -7.50000000      -7.50000000      -7.50000000      -7.50000000      -7.50000000      -7.50000000      -7.50000000      -7.50000000      -7.50000000      -7.50000000      -7.50000000      -7.50000000      -7.50000000      -7.50000000      -7.50000000      -7.50000000      -7.50000000      -7.50000000      -7.50000000
        -7.50000000      -7.50000000      -7.50000000      -7.50000000      -7.50000000      -7.50000000      -7.50000000      -7.50000000      -7.50000000      -7.50000000      -7.50000000      -7.50000000      -7.50000000      -7.50000000      -7.50000000      -7.50000000      -7.50000000      -7.50000000      -7.50000000      -7.50000000
        -7.50000000      -7.50000000      -7.50000000      -7.50000000      -7.50000000      -7.50000000      -7.50000000      -7.50000000      -7.50000000      -7.50000000      -7.50000000      -7.50000000      -7.50000000      -7.50000000      -7.50000000      -7.50000000      -7.50000000      -7.50000000      -7.50000000      -7.50000000
        -7.50000000      -7.50000000      -7.50000000      -7.50000000      -7.50000000      -7.50000000      -7.50000000      -7.50000000      -7.50000000      -7.50000000      -7.50000000      -7.50000000      -7.50000000      -7.50000000      -7.50000000      -7.50000000      -7.50000000      -7.50000000      -7.50000000      -7.50000000
        -7.50000000      -7.50000000      -7.50000000      -7.50000000      -7.50000000      -7.50000000      -7.50000000      -7.50000000      -7.50000000      -7.50000000      -7.50000000      -7.50000000      -7.50000000      -7.50000000      -7.50000000      -7.50000000      -7.50000000      -7.50000000      -7.50000000      -7.50000000
        -7.50000000      -7.50000000      -7.50000000      -7.50000000      -7.50000000      -7.50000000      -7.50000000      -7.50000000      -7.50000000      -7.50000000      -7.50000000      -7.50000000      -7.50000000      -7.50000000      -7.50000000      -7.50000000      -7.50000000      -7.50000000      -7.50000000      -7.50000000
        -7.50000000      -7.50000000      -7.50000000      -7.50000000      -7.50000000      -7.50000000      -7.50000000      -7.50000000      -7.50000000      -7.50000000      -7.50000000      -7.50000000      -7.50000000      -7.50000000      -7.50000000      -7.50000000      -7.50000000      -7.50000000      -7.50000000      -7.50000000
        -7.50000000      -7.50000000      -7.50000000      -7.50000000      -7.50000000      -7.50000000      -7.50000000      -7.50000000      -7.50000000      -7.50000000      -7.50000000      -7.50000000      -7.50000000      -7.50000000      -7.50000000      -7.50000000      -7.50000000      -7.50000000      -7.50000000      -7.50000000
        -7.50000000      -7.50000000      -7.50000000      -7.50000000      -7.50000000      -7.50000000      -7.50000000      -7.50000000      -7.50000000      -7.50000000      -7.50000000      -7.50000000      -7.50000000      -7.50000000      -7.50000000      -7.50000000      -7.50000000      -7.50000000      -7.50000000      -7.50000000
        -7.50000000      -7.50000000      -7.50000000      -7.50000000      -7.50000000      -7.50000000      -7.50000000      -7.50000000      -7.50000000      -7.50000000      -7.50000000      -7.50000000      -7.50000000      -7.50000000      -7.50000000      -7.50000000      -7.50000000      -7.50000000      -7.50000000      -7.50000000
        -7.50000000      -7.50000000      -7.50000000      -7.50000000      -7.50000000      -7.50000000      -7.50000000      -7.50000000      -7.50000000      -7.50000000      -7.50000000      -7.50000000      -7.50000000      -7.50000000      -7.50000000      -7.50000000      -7.50000000      -7.50000000      -7.50000000      -7.50000000
        -7.50000000      -7.50000000      -7.50000000      -7.50000000      -7.50000000      -7.50000000      -7.50000000      -7.50000000      -7.50000000      -7.50000000      -7.50000000      -7.50000000      -7.50000000      -7.50000000      -7.50000000      -7.50000000      -7.50000000      -7.50000000      -7.50000000      -7.50000000
        -7.50000000      -7.50000000      -7.50000000      -7.50000000      -7.50000000      -7.50000000      -7.50000000      -7.50000000      -7.50000000      -7.50000000      -7.50000000      -7.50000000      -7.50000000      -7.50000000      -7.50000000      -7.50000000      -7.50000000      -7.50000000      -7.50000000      -7.50000000
        -7.50000000      -7.50000000      -7.50000000      -7.50000000      -7.50000000      -7.50000000      -7.50000000      -7.50000000      -7.50000000      -7.50000000      -7.50000000      -7.50000000      -7.50000000      -7.50000000      -7.50000000      -7.50000000      -7.50000000      -7.50000000      -7.50000000      -7.50000000
        -7.50000000      -7.50000000      -7.50000000      -7.50000000      -7.50000000      -7.50000000      -7.50000000      -7.50000000      -7.50000000      -7.50000000      -7.50000000      -7.50000000      -7.50000000      -7.50000000      -7.50000000      -7.50000000      -7.50000000      -7.50000000      -7.50000000      -7.50000000
        -7.50000000      -7.50000000      -7.50000000      -7.50000000      -7.50000000      -7.50000000      -7.50000000      -7.50000000      -7.50000000      -7.50000000      -7.50000000      -7.50000000      -7.50000000      -7.50000000      -7.50000000      -7.50000000      -7.50000000      -7.50000000      -7.50000000      -7.50000000
        -7.50000000      -7.50000000      -7.50000000      -7.50000000      -7.50000000      -7.50000000      -7.50000000      -7.50000000      -7.50000000      -7.50000000      -7.50000000      -7.50000000      -7.50000000      -7.50000000      -7.50000000      -7.50000000      -7.50000000      -7.50000000      -7.50000000      -7.50000000
        -7.50000000      -7.50000000      -7.50000000      -7.50000000      -7.50000000      -7.50000000      -7.50000000      -7.50000000      -7.50000000      -7.50000000      -7.50000000      -7.50000000      -7.50000000      -7.50000000      -7.50000000      -7.50000000      -7.50000000      -7.50000000      -7.50000000      -7.50000000
        -7.50000000      -7.50000000      -7.50000000      -7.50000000      -7.50000000      -7.50000000      -7.50000000      -7.50000000      -7.50000000      -7.50000000      -7.50000000      -7.50000000      -7.50000000      -7.50000000      -7.50000000      -7.50000000      -7.50000000      -7.50000000      -7.50000000      -7.50000000
        -7.50000000      -7.50000000      -7.50000000      -7.50000000      -7.50000000      -7.50000000      -7.50000000      -7.50000000      -7.50000000      -7.50000000
  botm  LAYERED
    INTERNAL  FACTOR  1.0
          -8.25000000      -8.25000000      -8.25000000      -8.25000000      -8.25000000      -8.25000000      -8.25000000      -8.25000000      -8.25000000      -8.25000000      -8.25000000      -8.25000000      -8.25000000      -8.25000000      -8.25000000      -8.25000000      -8.25000000      -8.25000000      -8.25000000      -8.25000000
          -8.25000000      -8.25000000      -8.25000000      -8.25000000      -8.25000000      -8.25000000      -8.25000000      -8.25000000      -8.25000000      -8.25000000      -8.25000000      -8.25000000      -8.25000000      -8.25000000      -8.25000000      -8.25000000      -8.25000000      -8.25000000      -8.25000000      -8.25000000
          -8.25000000      -8.25000000      -8.25000000      -8.25000000      -8.25000000      -8.25000000      -8.25000000      -8.25000000      -8.25000000      -8.25000000      -8.25000000      -8.25000000      -8.25000000      -8.25000000      -8.25000000      -8.25000000      -8.25000000      -8.25000000      -8.25000000      -8.25000000
          -8.25000000      -8.25000000      -8.25000000      -8.25000000      -8.25000000      -8.25000000      -8.25000000      -8.25000000      -8.25000000      -8.25000000      -8.25000000      -8.25000000      -8.25000000      -8.25000000      -8.25000000      -8.25000000      -8.25000000      -8.25000000      -8.25000000      -8.25000000
          -8.25000000      -8.25000000      -8.25000000      -8.25000000      -8.25000000      -8.25000000      -8.25000000      -8.25000000      -8.25000000      -8.25000000      -8.25000000      -8.25000000      -8.25000000      -8.25000000      -8.25000000      -8.25000000      -8.25000000      -8.25000000      -8.25000000      -8.25000000
          -8.25000000      -8.25000000      -8.25000000      -8.25000000      -8.25000000      -8.25000000      -8.25000000      -8.25000000      -8.25000000      -8.25000000      -8.25000000      -8.25000000      -8.25000000      -8.25000000      -8.25000000      -8.25000000      -8.25000000      -8.25000000      -8.25000000      -8.25000000
          -8.25000000      -8.25000000      -8.25000000      -8.25000000      -8.25000000      -8.25000000      -8.25000000      -8.25000000      -8.25000000      -8.25000000      -8.25000000      -8.25000000      -8.25000000      -8.25000000      -8.25000000      -8.25000000      -8.25000000      -8.25000000      -8.25000000      -8.25000000
          -8.25000000      -8.25000000      -8.25000000      -8.25000000      -8.25000000      -8.25000000      -8.25000000      -8.25000000      -8.25000000      -8.25000000      -8.25000000      -8.25000000      -8.25000000      -8.25000000      -8.25000000      -8.25000000      -8.25000000      -8.25000000      -8.25000000      -8.25000000
          -8.25000000      -8.25000000      -8.25000000      -8.25000000      -8.25000000      -8.25000000      -8.25000000      -8.25000000      -8.25000000      -8.25000000      -8.25000000      -8.25000000      -8.25000000      -8.25000000      -8.25000000      -8.25000000      -8.25000000      -8.25000000      -8.25000000      -8.25000000
          -8.25000000      -8.25000000      -8.25000000      -8.25000000      -8.25000000      -8.25000000      -8.25000000      -8.25000000      -8.25000000      -8.25000000      -8.25000000      -8.25000000      -8.25000000      -8.25000000      -8.25000000      -8.25000000      -8.25000000      -8.25000000      -8.25000000      -8.25000000
          -8.25000000      -8.25000000      -8.25000000      -8.25000000      -8.25000000      -8.25000000      -8.25000000      -8.25000000      -8.25000000      -8.25000000      -8.25000000      -8.25000000      -8.25000000      -8.25000000      -8.25000000      -8.25000000      -8.25000000      -8.25000000      -8.25000000      -8.25000000
          -8.25000000      -8.25000000      -8.25000000      -8.25000000      -8.25000000      -8.25000000      -8.25000000      -8.25000000      -8.25000000      -8.25000000      -8.25000000      -8.25000000      -8.25000000      -8.25000000      -8.25000000      -8.25000000      -8.25000000      -8.25000000      -8.25000000      -8.25000000
          -8.25000000      -8.25000000      -8.25000000      -8.25000000      -8.25000000      -8.25000000      -8.25000000      -8.25000000      -8.25000000      -8.25000000      -8.25000000      -8.25000000      -8.25000000      -8.25000000      -8.25000000      -8.25000000      -8.25000000      -8.25000000      -8.25000000      -8.25000000
          -8.25000000      -8.25000000      -8.25000000      -8.25000000      -8.25000000      -8.25000000      -8.25000000      -8.25000000      -8.25000000      -8.25000000      -8.25000000      -8.25000000      -8.25000000      -8.25000000      -8.25000000      -8.25000000      -8.25000000      -8.25000000      -8.25000000      -8.25000000
          -8.25000000      -8.25000000      -8.25000000      -8.25000000      -8.25000000      -8.25000000      -8.25000000      -8.25000000      -8.25000000      -8.25000000      -8.25000000      -8.25000000      -8.25000000      -8.25000000      -8.25000000      -8.25000000      -8.25000000      -8.25000000      -8.25000000      -8.25000000
          -8.25000000      -8.25000000      -8.25000000      -8.25000000      -8.25000000      -8.25000000      -8.25000000      -8.25000000      -8.25000000      -8.25000000      -8.25000000      -8.25000000      -8.25000000      -8.25000000      -8.25000000      -8.25000000      -8.25000000      -8.25000000      -8.25000000      -8.25000000
          -8.25000000      -8.25000000      -8.25000000      -8.25000000      -8.25000000      -8.25000000      -8.25000000      -8.25000000      -8.25000000      -8.25000000      -8.25000000      -8.25000000      -8.25000000      -8.25000000      -8.25000000      -8.25000000      -8.25000000      -8.25000000      -8.25000000      -8.25000000
          -8.25000000      -8.25000000      -8.25000000      -8.25000000      -8.25000000      -8.25000000      -8.25000000      -8.25000000      -8.25000000      -8.25000000      -8.25000000      -8.25000000      -8.25000000      -8.25000000      -8.25000000      -8.25000000      -8.25000000      -8.25000000      -8.25000000      -8.25000000
          -8.25000000      -8.25000000      -8.25000000      -8.25000000      -8.25000000      -8.25000000      -8.25000000      -8.25000000      -8.25000000      -8.25000000      -8.25000000      -8.25000000      -8.25000000      -8.25000000      -8.25000000      -8.25000000      -8.25000000      -8.25000000      -8.25000000      -8.25000000
          -8.25000000      -8.25000000      -8.25000000      -8.25000000      -8.25000000      -8.25000000      -8.25000000      -8.25000000      -8.25000000      -8.25000000      -8.25000000      -8.25000000      -8.25000000      -8.25000000      -8.25000000      -8.25000000      -8.25000000      -8.25000000      -8.25000000      -8.25000000
          -8.25000000      -8.25000000      -8.25000000      -8.25000000      -8.25000000      -8.25000000      -8.25000000      -8.25000000      -8.25000000      -8.25000000      -8.25000000      -8.25000000      -8.25000000      -8.25000000      -8.25000000      -8.25000000      -8.25000000      -8.25000000      -8.25000000      -8.25000000
          -8.25000000      -8.25000000      -8.25000000      -8.25000000      -8.25000000      -8.25000000      -8.25000000      -8.25000000      -8.25000000      -8.25000000      -8.25000000      -8.25000000      -8.25000000      -8.25000000      -8.25000000      -8.25000000      -8.25000000      -8.25000000      -8.25000000      -8.25000000
          -8.25000000      -8.25000000      -8.25000000      -8.25000000      -8.25000000      -8.25000000      -8.25000000      -8.25000000      -8.25000000      -8.25000000      -8.25000000      -8.25000000      -8.25000000      -8.25000000      -8.25000000      -8.25000000      -8.25000000      -8.25000000      -8.25000000      -8.25000000