# File generated by Flopy version 3.9.1 on 06/09/2025 at 13:01:08.
BEGIN options
END options

BEGIN griddata
  strt
    CONSTANT       0.15000000
END griddata

