# File generated by Flopy version 3.9.1 on 06/24/2025 at 08:46:16.
BEGIN options
END options

BEGIN griddata
  strt
    CONSTANT       0.15000000
END griddata

