# File generated by Flopy version 3.9.2 on 06/23/2025 at 11:58:18.
BEGIN options
END options

BEGIN griddata
  strt
    CONSTANT       0.15000000
END griddata

