# File generated by Flopy version 3.9.1 on 06/24/2025 at 08:46:16.
BEGIN options
END options

BEGIN packages
  OC6  test.oc  oc
  IC6  test.ic  ic
  DISV6  test.disv  disv
  NPF6  test.npf  npf
  CHD6  test.chd  chd
  WEL6  test.wel  wel-inj
  WEL6  test_0.wel  wel-prod
END packages

