# File generated by Flopy version 3.9.3 on 10/06/2025 at 15:08:33.
BEGIN options
  SAVE_FLOWS
  SAVE_SPECIFIC_DISCHARGE
  SAVE_SATURATION
END options

BEGIN griddata
  icelltype
    CONSTANT  0
  k  LAYERED
    INTERNAL  FACTOR  1.0
      3.98672307E-05  8.22338251E-05  1.72688092E-04  2.66331687E-04  2.22045737E-04  1.25932681E-04  6.30472197E-05  4.50424744E-05  7.60017655E-05  9.64920048E-05  9.84191351E-05  9.96678375E-05  1.63663293E-04  2.92221357E-04  4.92659508E-04  4.73209256E-04  3.58804159E-04  1.96264099E-04  9.02785533E-05  8.04104479E-05
      4.74490050E-05  7.84020327E-05  2.55570296E-04  6.17749836E-04  7.61793887E-04  2.74719676E-04  5.38498382E-05  3.01166590E-05  3.96478678E-08  4.98308941E-09  3.63603845E-09  4.70133973E-09  2.53805843E-08  1.32808012E-04  2.85249524E-04  5.06662310E-04  5.69790242E-04  6.35823351E-04  9.57529103E-04       0.00131488
      4.78727879E-05  8.59590835E-05  2.10782488E-04  2.67456376E-04  2.20681140E-04  1.20936066E-04  7.12792506E-05  5.91207431E-05  1.12994210E-04  1.26916489E-04  1.16760945E-04  1.31153705E-04  1.90780926E-04  3.02890223E-04  4.71175057E-04  5.49651244E-04  4.20320403E-04  2.33055038E-04  1.46632209E-04  1.38065406E-04
      6.77152145E-05  1.10619065E-04  4.46921484E-04       0.00106168       0.00110453  2.91729010E-04  5.46090780E-05  2.94771482E-05  8.29170842E-06  1.02567239E-08  4.65045956E-09  4.31692903E-06  8.59994803E-05  1.38686744E-04  2.47583304E-04  3.38724841E-04  3.46067149E-04  4.43014021E-04  7.74787257E-04       0.00114020
      6.52406269E-05  1.03305450E-04  2.34214633E-04  2.83634530E-04  2.95507993E-04  1.59960604E-04  1.12790083E-04  8.96396623E-05  1.66755190E-04  2.13338899E-04  1.51715174E-04  1.36273856E-04  1.79388435E-04  2.93364997E-04  4.47137139E-04  5.91967182E-04  4.77815345E-04  3.67721609E-04  3.17426680E-04  2.90797002E-04
      1.75395983E-04  2.53041276E-04  7.46972450E-04       0.00180321       0.00135831  2.15911830E-04  5.45485025E-05  2.89358647E-05  5.35782104E-05  8.30994234E-05  7.03337303E-05  2.05338536E-04  2.61352690E-04  2.41821133E-04  1.85559616E-04  1.27465744E-04  1.59765911E-04  2.67707528E-04  5.21417517E-04  8.78186401E-04
      4.07738196E-05  7.02522234E-05  2.17626676E-04  3.49176573E-04  3.69076255E-04  2.37299255E-04  1.96216484E-04  1.40143378E-04  2.30379012E-04  3.06647609E-04  1.85893487E-04  1.58017422E-04  2.24217285E-04  2.82641673E-04  4.09801570E-04  4.08289389E-04  3.94553499E-04  4.53215091E-04  4.38413887E-04  3.31978540E-04
      2.45837961E-04  3.94044254E-04  9.22898938E-04       0.00201402       0.00129566  2.13447931E-04  5.94535657E-05  5.52778860E-05  1.78029702E-04  3.46691123E-04  3.93454048E-04  5.81181608E-04  4.10019705E-04  2.23987900E-04  9.06624174E-05  6.48079612E-05  1.01273063E-04  1.57236054E-04  2.58357928E-04  5.61017026E-04
      3.83245791E-05  7.49597562E-05  2.72755280E-04  4.07462321E-04  4.38769865E-04  3.27804300E-04  3.15271964E-04  3.30627905E-04  3.19123795E-04  3.95475763E-04  2.58368464E-04  2.80106651E-04  3.41324485E-04  3.72263630E-04  4.26384127E-04  2.59635410E-04  2.23748089E-04  2.83665486E-04  3.92305066E-04  3.23390193E-04
      1.56982489E-04  3.11183670E-04  7.01484814E-04       0.00139226  8.54927500E-04  1.82372072E-04  7.50147312E-05  8.97093443E-05  3.90910794E-04  6.68759594E-04       0.00103081       0.00109047  5.15584742E-04  1.90152904E-04  6.63444289E-05  4.80067566E-05  5.66914380E-05  8.17403827E-05  1.63985106E-04  5.26491622E-04
      2.92888400E-05  5.97886347E-05  2.03451248E-04  3.17113882E-04  4.15383423E-04  4.00418403E-04  4.89596077E-04  6.01888028E-04  3.83407658E-04  2.42477666E-04  3.43950851E-04  4.99615539E-04  5.56005945E-04  5.94063642E-04  4.43193015E-04  2.44732272E-04  1.63533734E-04  1.58876728E-04  2.13461235E-04  1.67050228E-04
      5.38335215E-05  7.66575035E-05  3.16479597E-04  6.43858312E-04  5.08308466E-04  1.66514747E-04  1.32302089E-04  1.79864986E-04  5.25029900E-04       0.00120792       0.00212326       0.00206847  7.07492486E-04  2.61877712E-04  1.09897742E-04  5.05303329E-05  3.19948894E-05  4.10035119E-05  9.50564293E-05  2.90586181E-04
      2.51286934E-05  5.18608545E-05  1.78299323E-04  3.45203256E-04  6.57522668E-04       0.00102920  4.22680384E-04  2.40759261E-04  1.21447678E-04  1.58731964E-04  3.36390916E-04  5.22175010E-04  5.37703823E-04  6.76917664E-04  5.38761021E-04  2.87183328E-04  1.60025625E-04  1.62046167E-04  2.43593934E-04  1.17227256E-04
      5.99490350E-09  3.00749626E-09  5.57556411E-09  4.66742751E-04  4.34706887E-04  2.59203679E-04  2.01506474E-04  2.91705289E-04  6.74466772E-04       0.00178447       0.00321846       0.00284361       0.00114206  5.05255464E-04  2.57051947E-04  9.42073171E-05  3.78897161E-05  3.91158445E-05  6.25838173E-05  1.80226408E-04
      1.94842224E-05  4.02269687E-05  1.50816615E-04  5.99217251E-04       0.00157839       0.00155752  4.19643985E-04  1.79456746E-04  1.05912080E-04  1.55645372E-04  3.06224274E-04  4.63861491E-04  3.94306989E-04  5.24219371E-04  4.72739132E-04  2.78053118E-04  2.05444424E-04  2.98439663E-04  4.44191568E-04  3.04786713E-04
      5.67544202E-05  4.89933464E-05  1.68820632E-04  9.49235939E-04  9.35093310E-04  5.44979218E-04  2.65215951E-04  2.81194075E-04  5.99951766E-04       0.00155302       0.00307871       0.00341149       0.00196436       0.00122624  6.16190276E-04  2.75673325E-04  1.08817615E-04  9.86333605E-05  9.36700716E-05  1.86113454E-04
      2.32113866E-05  4.46442607E-05  1.85556440E-04  7.84396032E-04       0.00208915       0.00131442  3.54011051E-04  1.31149819E-04  1.10189357E-04  2.07799173E-04  3.57736293E-04  4.29013220E-04  3.24435441E-04  4.87260262E-04  5.40156293E-04  3.64677389E-04  3.83705875E-04  5.59205728E-04  6.98538229E-04  3.89901122E-04
      1.86816200E-04  2.82855722E-04       0.00107148       0.00196425       0.00193165  8.37702627E-04  4.01452909E-04  2.63729284E-04  3.49641576E-04  8.20646632E-04       0.00191269       0.00283088       0.00304587       0.00217791       0.00103889  6.08348047E-04  4.20282519E-04  3.41552457E-04  2.28139666E-04  2.90509785E-04
      2.18564305E-05  3.33572654E-05  1.06049346E-04  4.88888621E-04       0.00152145  9.96223875E-04  2.76109224E-04  1.04553637E-04  1.10190792E-04  2.27830412E-04  3.82455546E-04  4.13993778E-04  3.93826971E-04  6.05945929E-04  6.47203779E-04  5.19589912E-04  6.59642384E-04  6.60401655E-04  5.44584220E-04  4.53486265E-04
      2.27527423E-04  3.03333595E-04       0.00106538       0.00202698       0.00128443  9.36809029E-04  3.61494858E-04  1.29374780E-04  1.36134984E-04  3.17389748E-04  7.86704203E-04       0.00300437       0.00390051       0.00163769  8.27786370E-04  6.13171781E-04  8.44967644E-04  7.87581451E-04  4.31263276E-04  3.87086426E-04
      1.49210732E-05  2.25917926E-05  6.34260605E-05  2.51542601E-04  7.32907041E-04  5.08043784E-04  1.96430364E-04  1.03461032E-04  1.45783151E-04  2.69442658E-04  3.10698387E-04  2.95235089E-04  3.38111197E-04  5.31342750E-04  7.17866397E-04  5.60061664E-04  7.05270899E-04  7.28449659E-04  5.78446685E-04  6.67335736E-04
      5.29683895E-04  5.61357007E-04  6.04126202E-04  5.44592112E-04  5.82927667E-04  6.41265055E-04  6.72396755E-04  5.83229462E-04  5.60653207E-04  5.44852240E-04  4.05186613E-04  4.12145935E-04  2.84776152E-04  3.43645289E-04  3.44601307E-04  2.23304544E-04  2.21883557E-04  3.30211883E-04  2.97972781E-04  2.18442646E-04
      2.09675500E-04  1.57860537E-04  1.65269809E-04  1.75839428E-04  1.85583194E-04  2.43144799E-04  3.89361573E-04  2.47863042E-04  3.39049749E-04  8.44241876E-04       0.00149071  8.71024760E-04  5.54895863E-04  1.94117455E-04  6.35377743E-05  5.33856266E-05  1.01029558E-04  2.57777173E-04       0.00453019       0.00788936
           0.00117732  5.07521112E-04  4.67643894E-04  7.52423614E-04  9.94600017E-04  5.93704679E-04  6.61965145E-04  1.44019797E-05  1.77647506E-05  5.11140548E-05  1.91063067E-04  3.61690414E-04  2.82105094E-04  1.46677398E-04  8.98990507E-05  1.52839900E-04  2.77270103E-04  2.50592201E-04  2.38401983E-04  3.20833064E-04
      5.23032595E-04  7.07395243E-04  5.10970239E-04  6.09089807E-04  4.86239951E-04  3.47991385E-04  3.46395665E-04  2.43838872E-04  3.83552811E-04  5.33339802E-04  2.46516624E-04  3.63818977E-04  5.07393385E-04  4.57626935E-04  3.06987535E-04  2.83454212E-04  3.02375914E-04  1.93632409E-04  2.28023567E-04  1.47495893E-04
      1.54399536E-04  1.64277209E-04  1.15830415E-04  1.22772337E-04  1.60005446E-04  1.52685750E-04  1.17620607E-04  1.10494750E-04  1.51757994E-04  1.59570537E-04  1.10467122E-04  1.24521070E-04  1.93511790E-04  2.63876194E-04  1.52428906E-04  1.92099053E-04  4.89665557E-04  7.93360772E-04  4.43113171E-04  2.19776819E-04
      9.26711423E-05  3.72337975E-05  3.12497299E-05  5.62106102E-05  1.39405938E-04       0.00330507  9.72983267E-04  7.52036038E-04  3.05409548E-04  2.60026805E-04  3.96111295E-04  4.85518020E-04  5.99527028E-04       0.00102115  1.50548509E-05  1.65130808E-05  5.11024170E-05  2.01906896E-04  2.92404600E-04  2.39456251E-04
      1.32472711E-04  8.86144114E-05  1.30237499E-04  2.38207893E-04  2.58016321E-04  2.93328226E-04  3.77923172E-04  5.49288572E-04  5.76381606E-04  5.55454463E-04  5.75467551E-04  2.93438221E-04  1.95223166E-04  2.89300454E-04  1.92736482E-04  1.65273663E-04  1.38446365E-04  1.57028324E-04  1.25700111E-04  1.13268446E-04
      1.25700111E-04  1.13268446E-04  1.13268446E-04  1.13268446E-04  1.13268446E-04  1.71868550E-04  1.54934157E-04  1.62245551E-04  1.56194095E-04  1.62245551E-04  1.62245551E-04  1.62245551E-04  1.62245551E-04  1.56194095E-04  1.41333923E-04  1.29398774E-04  1.00175387E-04  1.17432193E-04  9.35165093E-05  7.92724848E-05
      7.74527467E-05  7.48843826E-05  7.20081912E-05  6.25417384E-05  5.92415815E-05  5.61690632E-05  5.25272739E-05  5.44988419E-05  5.25272739E-05  5.44988419E-05  5.44988419E-05  5.44988419E-05  5.44988419E-05  7.24577231E-05  9.44047886E-05  6.30750874E-05  7.15322699E-05  6.30750874E-05  6.30750874E-05  6.30750874E-05
      6.30750874E-05  7.15322699E-05  9.07300400E-05  1.12933072E-04  1.31102132E-04  1.08197417E-04  1.24414338E-04  2.81325568E-04  4.44191153E-04  2.70617780E-04  1.35530221E-04  5.71010853E-05  3.00282197E-05  2.93052317E-05  5.34975085E-05  1.06726408E-04  2.07448466E-04  4.50260040E-04  6.18300918E-04  2.21213605E-04
      1.50713192E-04  2.14681118E-04  2.61236689E-04  4.60421535E-04  9.67477132E-04  1.77277709E-05  1.77382193E-05  6.22607964E-05  1.84158923E-04  2.89540663E-04  2.42546698E-04  1.28050150E-04  7.93974298E-05  1.09700324E-04  1.72628325E-04  2.08544374E-04  3.29679169E-04  4.94815331E-04  5.44269882E-04  5.38101868E-04
      5.36238363E-04  5.25044559E-04  3.99062280E-04  1.92142003E-04  3.86668626E-04  1.88372505E-04  1.08753522E-04  7.44986185E-05  6.54869092E-05  6.54869092E-05  6.54869092E-05  6.54869092E-05  7.44986185E-05  6.54869092E-05  1.07438072E-04  6.91460871E-05  5.86881521E-05  5.86881521E-05  5.86881521E-05  5.86881521E-05
      5.40504066E-05  5.86881521E-05  5.40504066E-05  4.92973698E-05  5.52518207E-05  4.78594713E-05  6.31462413E-05  5.65471760E-05  6.03016678E-05  5.40220900E-05  4.81884003E-05  4.30496503E-05  4.62418519E-05  4.13435795E-05  3.57454409E-05  3.42267557E-05  3.48389825E-05  3.48389825E-05  3.48389825E-05  3.48389825E-05
      3.42267557E-05  3.48389825E-05  3.43707559E-05  3.39486951E-05  4.61247204E-05  4.61247204E-05  4.61247204E-05  4.61247204E-05  5.27927056E-05  4.61247204E-05  5.27927056E-05  7.15872610E-05  5.06262710E-05  7.16599820E-05  8.91093136E-05  8.82416887E-05  8.86313228E-05  8.73087010E-05  9.52567936E-05  1.46040407E-04
      8.49584387E-05  5.49234161E-05  3.42638628E-05  2.23116665E-05  2.25429673E-05  3.98609127E-05  7.96819792E-05  1.63166619E-04  2.41124952E-04  3.30530368E-04  1.39996450E-04  5.88184277E-05  5.65689811E-05  1.02350955E-04  2.62388501E-04  5.88606827E-04  2.36117246E-05  2.41841307E-05  7.29263223E-05  1.78247528E-04
      2.32145264E-04  2.22454340E-04  1.12617582E-04  8.24560955E-05  9.75722100E-05  1.31771605E-04  1.72286983E-04  2.45104748E-04  4.45250185E-04  4.64640050E-04  4.27138340E-04  3.83265973E-04  3.22816813E-04  2.98384382E-04  1.60723156E-04  2.37158747E-04  1.68975306E-04  8.70515242E-05  5.56417471E-05  8.10110806E-05
      5.02959497E-05  3.78420420E-05  3.20205502E-05  3.27865204E-05  2.65029847E-05  4.16736835E-05  3.69985945E-05  3.19970095E-05  2.68451265E-05  3.19521260E-05  3.02452994E-05  2.29505897E-05  2.66287939E-05  2.64746095E-05  3.23053901E-05  2.85464824E-05  3.56500947E-05  5.30855799E-05  7.19927981E-05  5.11405765E-05
      7.02656036E-05  8.43109724E-05  7.99609780E-05  7.92111827E-05  8.01291011E-05  7.83027705E-05  9.55531521E-05  5.52220721E-05  3.68871723E-05  3.45502978E-05  2.14441661E-05  2.19038614E-05  3.12711700E-05  7.07062022E-05  1.48594300E-04  2.26072229E-04  2.53123978E-04  1.10525318E-04  3.76671825E-05  3.26470262E-05
      6.75996640E-05  1.71452797E-04  3.15799149E-04  4.49806552E-05  4.33033801E-05  8.69667405E-05  1.73313569E-04  2.02505113E-04  1.79586732E-04  7.84350212E-05  7.94405639E-05  8.97738370E-05  1.03941904E-04  1.34166021E-04  1.72728322E-04  3.40847019E-04  3.45274734E-04  2.87908540E-04  3.64715824E-04  3.18632915E-04
      2.30931965E-04  1.57595738E-04  2.49213191E-04  1.74815260E-04  9.86854302E-05  6.84490767E-05  1.15105985E-04  7.40502266E-05  4.17724626E-05  2.94825756E-05  4.34739261E-05  2.92369822E-05  2.47877130E-05  2.16432186E-05  2.39681615E-05  2.18891956E-05  2.11263430E-05  2.72585435E-05  2.21122335E-05  2.87439118E-05
      3.24923715E-05  4.00122024E-05  3.59676541E-05  4.29365973E-05  5.32422518E-05  7.16783686E-05  5.45542712E-05  6.37251591E-05  8.15251105E-05  8.32276605E-05  7.20852313E-05  8.02326582E-05  8.99872322E-05  8.62319796E-05  4.14409145E-05  3.17343400E-05  4.33040221E-05  2.76442362E-05  2.24106231E-05  2.40817181E-05
      7.33135964E-05  2.19277963E-04  2.81789366E-04  2.06844454E-04  1.23702930E-04  3.99958208E-05  2.92732797E-05  4.53145481E-05  6.12389270E-05  8.14234151E-05  7.86613108E-05  9.77205119E-05  1.54386495E-04  1.88734818E-04  1.83411070E-04  1.45734756E-04  7.75070743E-05  8.47037814E-05  1.00574474E-04  1.22419605E-04
      1.50591418E-04  2.21431382E-04  4.86492951E-04  4.34931205E-04  2.36295690E-04  1.20888222E-04  4.74169360E-05  2.91814776E-05  2.80474461E-05  3.68162996E-05  4.60621656E-05  6.28635078E-05  1.16372641E-04  1.27426717E-04  5.89142447E-05  4.67726413E-05  5.66819452E-05  3.90837697E-05  2.34178994E-05  1.71434012E-05
      6.46477232E-05  2.91402806E-04  3.85587767E-04  3.01896458E-04  2.01848849E-04  1.08058559E-04  5.86998697E-05  3.80156160E-05  1.92870793E-05  2.92802587E-09  1.23802133E-04  1.79070832E-04  2.89745273E-04  2.94272391E-04  1.47331420E-04  1.07320504E-04  1.01307825E-04  1.17102785E-04  1.57091879E-04  2.60366001E-04
      2.55472434E-04  3.00360984E-04  7.81686285E-04  5.83974600E-04  2.68492155E-04  1.77017330E-04  9.41574529E-05  6.46408503E-05  3.89768707E-05  3.54575600E-05  3.08992686E-05  4.27774828E-05  9.85157752E-05  1.27959635E-04  7.34303748E-05  8.68137540E-05  1.12401075E-04  4.71660564E-05  1.75813235E-05  1.20977232E-05
      5.24086598E-05  3.11903139E-04  5.77806305E-04  4.43097920E-04  2.61542418E-04  2.12465181E-04  1.44239445E-04  6.93300887E-05  8.68570667E-09  3.96779761E-09  1.79873002E-04  2.82134046E-04  5.07347224E-04  3.29189974E-04  1.21328215E-04  8.37765943E-05  8.45664411E-05  1.47697703E-04  4.07096691E-04  7.64357149E-04
      5.39076124E-04  4.66165386E-04  8.90347875E-04  6.96349497E-04  3.03730900E-04  2.06372441E-04  2.04667503E-04  1.88297508E-04  9.09938544E-05  4.58611650E-05  2.67021477E-05  3.47655037E-05  7.80638952E-05  1.14070421E-04  9.99115548E-05  1.58763163E-04  1.79956549E-04  6.29551424E-05  1.09755913E-05  1.04770138E-05
      4.26002059E-05  2.28022277E-04  5.14731332E-04  4.83429028E-04  3.37901430E-04  3.08846732E-04  2.55402313E-04  1.24156012E-04  2.26081983E-05  3.70302577E-09  2.98192056E-04  4.67717170E-04  5.42956147E-04  2.23914155E-04  6.59734503E-05  4.29068872E-05  4.55439499E-05  1.18959457E-04  6.89048403E-04       0.00118211
      6.37714050E-04  4.39271364E-04  5.63461762E-04  5.63735844E-04  2.62740830E-04  1.47342956E-04  2.16487128E-04  2.50176937E-04  1.60671611E-04  8.62715359E-05  4.11071794E-05  4.92185852E-05  9.06245691E-05  1.16984721E-04  1.27525185E-04  1.95510555E-04  2.13895826E-04  9.75508537E-05  1.07116180E-08  2.61840891E-08
      2.65785929E-05  1.17324775E-04  3.56278782E-04  5.37755051E-04  6.19357170E-04  7.48293435E-04  5.38565720E-04  2.36488116E-04  6.90923662E-05  4.60566074E-06  4.24430467E-04  5.25674772E-04  4.29165237E-04  1.36661461E-04  3.00851743E-05  1.77881540E-05  1.61119422E-05  4.81060758E-05  4.77900004E-04       0.00101940
      4.26681332E-04  2.27779656E-04  2.97952945E-04  3.55827955E-04  1.92820005E-04  1.04295876E-04  1.30070554E-04  1.69724672E-04  1.37489477E-04  1.13181998E-04  8.71390037E-05  1.06372033E-04  1.34704385E-04  1.49825142E-04  1.28639984E-04  1.62428023E-04  2.32097411E-04  2.00880693E-04  1.44254094E-08  3.07400274E-08
      7.58739594E-06  4.51648860E-05  3.07512748E-04  5.43281961E-04  9.17544574E-04       0.00129646  7.43305831E-04  2.77788101E-04  9.11107767E-05  3.18503433E-05  5.26897313E-04  5.39170222E-04  2.99318294E-04  1.00577099E-04  2.73923244E-05  1.43861950E-05  1.43251306E-05  3.00528461E-05  1.98804257E-04  4.48498927E-04
      2.61098735E-04  1.34326611E-04  1.61235394E-04  1.46602621E-04  1.40784605E-04  9.85785218E-05  8.64789209E-05  1.08321605E-04  1.31765756E-04  1.38344562E-04  1.36778455E-04  1.91010457E-04  2.18926159E-04  1.73121181E-04  1.00541910E-04  1.16245820E-04  1.76697147E-04  2.38290096E-04  1.91232983E-08  2.10433881E-08
      3.30005663E-08  1.39810494E-05  2.29848085E-04  4.87839693E-04  8.01323249E-04       0.00114685  6.75443612E-04  3.06486380E-04  1.54010045E-04  7.63545448E-05  4.62443460E-04  4.01163574E-04  1.95842567E-04  9.41250890E-05  4.13042617E-05  2.11068545E-05  2.42025700E-05  3.30894639E-05  8.17696017E-05  1.06200719E-04
      1.01653041E-04  1.00834000E-04  7.93733415E-05  8.37904511E-05  1.17754572E-04  1.18149629E-04  1.00051261E-04  1.02752930E-04  1.26502471E-04  1.30139808E-04  1.92950355E-04  3.38276830E-04  3.49160475E-04  2.10256033E-04  1.16320102E-04  1.21648599E-04  1.84337968E-04  2.75879188E-04  1.18861020E-08  1.05104930E-08
      1.48929795E-08  2.31938839E-07  1.94420039E-04  4.50190977E-04  7.57082605E-04       0.00104569  8.91051468E-04  4.53585330E-04  2.20163243E-04  1.19043038E-04  3.42332234E-04  4.61750698E-04  2.82284482E-04  1.34037286E-04  7.35418713E-05  4.23831331E-05  4.08099483E-05  4.04645839E-05  3.15074055E-05  3.15641198E-05
      4.12475074E-05  6.37703107E-05  6.17569783E-05  8.02636157E-05  1.48302525E-04  1.65993737E-04  1.45939029E-04  1.38603577E-04  9.67653995E-05  1.29467386E-04  3.13661191E-04  6.02015518E-04  5.21061529E-04  2.61637684E-04  1.72775186E-04  1.83140513E-04  1.98738066E-04  2.17482287E-04  3.36961497E-08  6.47140177E-09
      1.59457330E-08  7.64993655E-05  2.23022585E-04  5.40600258E-04  8.97663047E-04       0.00141136       0.00144005       0.00101699  3.35244728E-04  1.43458125E-04  2.36946477E-04  4.94704556E-04  4.69347945E-04  2.87194212E-04  2.00392133E-04  1.59290399E-04  1.22013387E-04  4.42999565E-05  2.65892848E-05  2.54230624E-05
      2.56075275E-05  3.49506774E-05  5.39496503E-05  9.33973625E-05  1.83438568E-04  2.22500682E-04  2.28510242E-04  1.65108806E-04  6.53800839E-05  9.39080114E-05  4.06413510E-04  8.59533230E-04  7.15010340E-04  4.78709263E-04  2.49384170E-04  2.09458691E-04  1.66318864E-04  2.41635072E-04  2.97571355E-04  2.30363953E-04
      2.19459284E-04  1.90236490E-04  3.46972006E-04  5.65403585E-04       0.00115590       0.00195183       0.00200560       0.00145687  3.79252042E-04  1.26732581E-04  1.93980019E-04  4.50337217E-04  5.92466808E-04  4.96784162E-04  4.19154153E-04  3.59419862E-04  2.30680780E-04  6.30038433E-05  3.16622222E-05  3.24835229E-05
      3.12600151E-05  3.69319423E-05  5.38371921E-05  8.90101544E-05  1.50966542E-04  2.05989694E-04  2.35533570E-04  1.32873411E-04  4.29496122E-05  6.80423718E-05  3.79306797E-04  7.87026621E-04  8.90798732E-04  7.44243968E-04  3.17108416E-04  2.06619482E-04  1.34496264E-04  2.28048684E-04  3.75620261E-04  3.59813207E-04
      3.01297173E-04  2.82068767E-04  4.13126315E-04  6.66827507E-04       0.00153496       0.00221977       0.00206188       0.00132653  3.75687437E-04  1.15189312E-04
    INTERNAL  FACTOR  1.0
      6.10583493E-09  5.54328232E-09  7.70320178E-09  5.44616489E-09  3.74332586E-09  2.53219792E-09  1.77703080E-05  2.71966637E-05  6.54033092E-05  9.23746629E-05  1.03424631E-04  8.35121736E-05  1.23383694E-04  1.93234648E-04  3.50024631E-04  3.04888732E-04  2.03596037E-04  8.81488070E-05  3.45025934E-05  1.66542713E-05
      3.37257549E-08  1.35775641E-08  1.97039999E-05  1.32240500E-04  1.78743702E-08  2.01172341E-08  2.23480549E-08       0.01529518       0.04936534  7.93545449E-05       0.01487182       0.00423920  2.83015532E-05  1.46468405E-08  1.30217829E-08  1.32833899E-08  1.43868065E-08  5.56658339E-05  8.81664233E-05  2.34871045E-04
      8.10675015E-09  7.45789744E-09  1.00144418E-08  8.20463141E-09  5.04625284E-09  3.34334425E-09  1.95043021E-05  3.40911971E-05  9.10699826E-05  1.16606294E-04  1.21257508E-04  1.36505687E-04  1.58971324E-04  2.00776764E-04  3.93377009E-04  3.76325615E-04  2.39234814E-04  1.05161233E-04  3.89734062E-05  1.34526995E-05
      1.04338749E-08  8.81008704E-09  1.29570885E-08  6.93815917E-05  1.11470258E-04       0.00188730       0.00426599       0.01878049       0.03838298  2.97024765E-05       0.00811789       0.00356674  9.36367202E-09  1.07271494E-08  8.59819369E-09  1.17259822E-08  1.63973018E-06  8.77691506E-05  1.43503004E-04  2.09884211E-04
      1.00088749E-08  8.88964084E-09  1.22641887E-08  1.57994385E-08  1.41846842E-08  1.70123484E-04       0.00120445       0.00137872  1.05219221E-04  1.90128373E-04  1.51213067E-04  1.41267675E-04  1.65185196E-04  2.26198086E-04  3.60466416E-04  4.10866782E-04  2.81182552E-04  1.63629733E-04  6.56586666E-05  1.03585211E-08
      5.77463915E-09  5.95021408E-09  5.35656286E-09  6.31214392E-09       0.00224686       0.00742622       0.01155477       0.05519692       0.01983595  4.92429723E-09  3.78944885E-09  4.54080231E-09  7.05977606E-09  5.88652214E-09  4.44100123E-09  1.67835251E-06  3.93758662E-05  8.40913478E-05  1.94994374E-04  3.16714240E-04
      9.70516664E-09  1.17680601E-08  1.83641446E-08  2.17257535E-08  1.94903080E-04       0.00626696       0.00520296       0.00430670       0.00253011  6.94653650E-04  1.86851916E-04  1.63134551E-04  2.00475496E-04  2.64382172E-04  3.47140052E-04  2.83307635E-04  2.03247799E-04  1.91394593E-04  2.09553240E-08  3.92125589E-09
      3.02735456E-09  3.37757580E-09  3.34855501E-09  6.65760025E-05       0.00263275       0.00418085       0.00876161       0.03509187       0.01325209  1.35583838E-05  1.68221626E-05  2.06722432E-05  1.14512985E-05  4.49639895E-06  1.08997982E-05  1.54007835E-05  4.20752449E-05  8.32482876E-05  1.22206570E-04  2.00946143E-04
      8.02102665E-09  1.31845354E-08  1.83194410E-08  1.73951975E-08       0.00177221       0.01220665       0.01012361       0.00899706       0.00988364       0.00922234  2.77769962E-04  2.87401447E-04  3.72540140E-04  3.36766352E-04  3.00683421E-04  1.36356543E-04  1.06371225E-04  1.13641117E-04  1.23449530E-08  4.35769256E-09
      2.10735012E-09  4.94009914E-09  6.66659523E-09  3.79432424E-04       0.00223604       0.00414043       0.00243245       0.00597263       0.00396037  2.06052824E-04  3.70263267E-04  4.47121717E-04  1.70603813E-04  4.10061015E-05  1.58323947E-05  1.83242140E-05  2.91913359E-05  4.02843884E-05  6.47078685E-05  1.97496912E-04
      6.24430483E-09  1.16241910E-08  1.22195392E-08  8.82939460E-09  1.71043828E-08       0.01230147       0.01197387       0.01038969       0.01779335       0.01587320  3.82966182E-04  5.32277072E-04  6.63048753E-04  5.32969594E-04  3.29876171E-04  1.46600917E-04  6.76527490E-05  6.44639016E-05  1.90406703E-08  7.45401163E-09
      3.11206960E-09  7.98750184E-09  8.49445109E-04  4.56599627E-04       0.00160702       0.00230085  9.96074643E-04       0.00132540  1.27621633E-04  5.54325069E-04       0.00115511       0.00128999  2.92941167E-04  9.88156964E-05  4.52160159E-05  1.95763290E-05  1.24167260E-05  1.68780223E-05  4.97403938E-05  1.22588259E-04
      6.46199639E-09  8.98392035E-09  6.51169122E-09  3.80839532E-09  5.97190695E-09  1.90593744E-04       0.01052882       0.01085057       0.01152023       0.00697005  2.87029062E-04  5.53250891E-04  6.81318598E-04  6.39598904E-04  4.58964773E-04  1.89952154E-04  9.36383054E-05  6.59104584E-05  8.98660625E-08  1.43495205E-08
      5.67627656E-09  5.17874295E-09  3.25971046E-04  5.09055319E-04  1.24029277E-08  8.95193832E-09  1.23619312E-08  2.34010939E-08  2.54626169E-04       0.00100274       0.00190209       0.00192279  5.21896305E-04  2.07158121E-04  1.14288721E-04  3.76949402E-05  1.51271347E-05  1.75837542E-05  3.70031640E-05  1.08303991E-04
      7.55852392E-09  7.74094327E-09  3.54498491E-09  2.46886874E-09  3.02817627E-09  1.17104705E-04       0.00217833       0.00530292       0.00469558  9.38605705E-05  2.07767174E-04  3.85386210E-04  4.20502691E-04  5.22535560E-04  3.92830910E-04  1.74266388E-04  1.27103960E-04  1.59314060E-04  1.45374083E-04  2.65824444E-08
      9.60682063E-09  4.14527967E-09  5.05797415E-09  6.17536320E-05  5.84753888E-09  6.62704946E-09  8.78218141E-09  1.41423852E-08  1.74799885E-04  7.38852582E-04       0.00200452       0.00269997       0.00133360  7.33241641E-04  4.06238325E-04  1.49582685E-04  4.84486480E-05  5.62724830E-05  6.00603353E-05  1.12600027E-04
      8.96714648E-09  7.06326208E-09  2.98302731E-09  2.32416953E-09  2.97155756E-09  2.57447517E-04  1.72724864E-04  9.25236719E-05  6.50933272E-05  8.52480376E-05  2.08886572E-04  3.17334094E-04  2.76414477E-04  3.39748196E-04  3.03808243E-04  1.90821289E-04  1.88904908E-04  2.46571769E-04  2.35597627E-04  4.33304317E-08
      1.13810475E-08  3.97813676E-09  2.88287679E-09  3.89458133E-09  4.98460774E-09  4.69022351E-09  5.27672765E-09  2.09707132E-05  1.29623754E-04  4.67864910E-04       0.00155413       0.00110291       0.01049511       0.00161378  7.21258164E-04  3.92304969E-04  2.62880882E-04  2.14642448E-04  1.38634540E-04  1.66199523E-04
      9.66865035E-09  1.89752065E-08  6.16547156E-09  4.61894581E-09  5.59937110E-09  2.61569649E-04  1.76356271E-04  8.00108737E-05  7.84971099E-05  1.30828299E-04  1.88015191E-04  2.46139712E-04  2.33180165E-04  3.95555873E-04  3.42856827E-04  1.75220038E-04  2.57593386E-04  2.74175967E-04  1.66138107E-04  4.76914461E-08
      1.43689330E-08  4.22919873E-09  1.79392336E-09  2.30664995E-09  3.48454515E-09  3.45464627E-09  2.76090956E-05  4.46110297E-05  7.42699064E-05  1.80535408E-04       0.00301540       0.01313633       0.03980843       0.00743332  7.25689008E-04  4.55293391E-04  5.11111176E-04  4.60789265E-04  2.69095135E-04  2.13563466E-04
      1.34714465E-08  4.35972022E-06  3.29674373E-08  8.13888241E-09  1.46845176E-08  1.70990242E-04  1.28063592E-04  7.66589228E-05  1.06306487E-04  1.56031026E-04  1.82870154E-04  1.17322951E-04  1.23939059E-04  7.60998225E-04  9.53909315E-04  9.82695136E-04  9.16106700E-04  6.16094119E-04  2.67753821E-04  6.69021605E-04
      3.07290779E-04  1.58979140E-04  1.71032997E-04  1.77142868E-04  1.57424722E-04  1.94110684E-04  2.61420057E-04  1.68012924E-04  1.85700077E-04  1.51074614E-04  9.89703258E-05  8.29034522E-05  5.51263480E-05  7.69315971E-05  6.79479567E-05  4.34706283E-05  4.41788219E-05  6.17334397E-08  4.37946080E-08  6.33295090E-08
      5.10898500E-08  3.01931185E-08  1.60574805E-08  3.61167830E-08  2.11065771E-08  8.26582563E-09  4.44345796E-09  1.04079003E-08  5.97261157E-09  2.38323841E-09  3.00037549E-09  4.00518224E-09  5.07504960E-05  6.78471547E-05  3.37472723E-05  4.09317321E-05  1.02126834E-04       0.01257546       0.02081615       0.03473318
           0.02479856  4.40777823E-04  4.19983145E-04  4.81863708E-04  5.70563032E-04  3.46145193E-04  3.76330648E-04  2.91658790E-06  3.51569413E-06  9.13145207E-06  3.55969107E-05  7.60329422E-05  1.16462616E-04  9.90078052E-05  6.50406875E-05  1.01587413E-04  1.46962933E-04  1.19743887E-04  9.46337586E-05  4.16684662E-04
      7.30857357E-04  6.71097747E-04  7.32808674E-04  7.61098887E-04  4.82840706E-04  2.62694254E-04  1.03513001E-04  2.03536657E-05  1.34117527E-04  1.60236212E-04  2.02802514E-05  9.70408011E-05  1.62657173E-04  1.58813634E-04  1.49663022E-04  1.63245989E-04  9.26132575E-05  6.26131551E-06  9.09491986E-05  7.35502582E-08
      3.05027018E-05  3.29043920E-05  2.29870292E-05  2.38524995E-05  2.80655792E-05  5.62955631E-08  2.27954983E-05  1.89474473E-05  3.63379177E-08  2.30503714E-08  8.91342499E-08  4.35961760E-08  1.33062535E-08  8.03120089E-09  2.75499254E-05  3.46078032E-05  3.27702736E-05  7.00819752E-05  1.07778415E-04  8.53636025E-05
      5.55537845E-05  2.66991334E-05  2.60849133E-05  6.03491663E-05       0.00875919       0.02002262       0.01509276       0.00622673  2.53589344E-04  2.29509507E-04  2.48866296E-04  2.70991965E-04  3.15795777E-04  4.34368345E-04  3.16072005E-06  3.40000406E-06  9.07550921E-06  3.91789449E-05  6.54550153E-05  1.02386222E-04
      9.20887468E-05  6.62842676E-05  8.71493842E-05  1.08184576E-04  1.03114594E-04  1.78081926E-04  5.37198849E-04       0.00115031       0.00117057       0.00116762       0.00118725  5.67511320E-08  3.25734180E-08  5.58684265E-08  3.20749826E-08  3.75723118E-08  3.66074424E-06  2.86178170E-08  2.04961053E-08  1.77758352E-08