# File generated by Flopy version 3.9.1 on 06/09/2025 at 13:01:08.
BEGIN options
  SAVE_FLOWS
END options

BEGIN dimensions
  MAXBOUND  1
END dimensions

BEGIN period  1
  5 565 -1.50000000E-03
END period  1

