# File generated by Flopy version 3.9.1 on 06/09/2025 at 13:01:08.
BEGIN options
  SAVE_FLOWS
  SAVE_SPECIFIC_DISCHARGE
  SAVE_SATURATION
END options

BEGIN griddata
  icelltype
    CONSTANT  0
  k  LAYERED
    INTERNAL  FACTOR  1.0
      4.00731391E-04  6.66792943E-04  6.91813262E-04  4.22361410E-04  3.53742624E-04  5.27994979E-04  5.80808151E-04  2.67176408E-04  2.30509931E-04  4.02871138E-04  8.63467949E-04       0.00112119  7.65743808E-04  2.50967681E-04  8.34394384E-05  4.31781263E-05  6.22642947E-05  1.01417138E-04  1.01818493E-04  9.60246155E-05
      1.35594554E-04  2.86773076E-04       0.00138074       0.00185452  5.66687066E-04  2.38290325E-04  1.21477263E-04  6.66416461E-05  2.88582589E-05  2.94809015E-05  1.03603471E-04  2.09214551E-04  2.63672230E-04  2.26670919E-04  2.04621274E-04  2.97613309E-04  4.29267730E-04  4.67660013E-04  4.86490246E-04  5.28969721E-04
      3.82008158E-04  7.11771948E-04  7.97415364E-04  4.74447579E-04  3.29456872E-04  3.98350211E-04  4.64479530E-04  2.35327947E-04  1.77229614E-04  3.15373965E-04  7.10148286E-04  9.50810057E-04  5.29837862E-04  1.67894316E-04  6.08879282E-05  3.48470649E-05  5.67454131E-05  1.11252271E-04  1.05179213E-04  8.82154645E-05
      1.42916988E-04  2.59232685E-04       0.00117014       0.00180616  5.11998313E-04  1.90307316E-04  1.00523738E-04  5.07377137E-05  2.20181244E-05  2.26065072E-05  8.06574197E-05  1.91465469E-04  3.04124548E-04  3.42238350E-04  3.48554326E-04  4.04490937E-04  3.92602182E-04  3.87928782E-04  4.22086854E-04  4.94918775E-04
      2.67147293E-04  6.78143414E-04       0.00104894  5.46321488E-04  3.12263799E-04  2.90764579E-04  3.32903315E-04  2.39614223E-04  2.21148365E-04  2.57072435E-04  5.46721213E-04  7.44584384E-04  3.07395749E-04  1.10289056E-04  5.01483283E-05  3.25304707E-05  6.69780846E-05  1.10623564E-04  8.35920318E-05  8.27189412E-05
      1.48715321E-04  3.07875298E-04  9.68824405E-04       0.00141968  4.14471718E-04  1.18698127E-04  5.17145686E-05  3.63096867E-05  3.09529074E-05  2.63942043E-05  4.92196559E-05  1.04448260E-04  2.72637264E-04  5.42221467E-04  8.15795317E-04  7.13497686E-04  4.09597981E-04  3.24883594E-04  3.51949747E-04  4.78027178E-04
      2.19947670E-04  5.85274864E-04  8.96056056E-04  6.05476833E-04  3.71606874E-04  2.73265707E-04  3.14800665E-04  3.67118861E-04  3.34568371E-04  3.06369811E-04  4.58158196E-04  4.93918600E-04  2.75282201E-04  1.08651219E-04  7.38316626E-05  6.74617161E-05  1.32543567E-04  1.31382401E-04  9.83173245E-05  9.99397526E-05
      2.16432792E-04  4.86236629E-04  9.19527270E-04  9.54583935E-04  4.18687358E-04  1.32893569E-04  2.73586902E-05  2.75132283E-05  4.46183607E-05  3.79458858E-05  3.46400845E-05  5.70503912E-05  1.81448442E-04  4.77845913E-04       0.00108872       0.00110811  6.98284735E-04  4.70222542E-04  4.46961830E-04  5.13646777E-04
      2.25969162E-04  5.21948638E-04  8.75565238E-04  7.06213069E-04  4.64372600E-04  3.41996443E-04  4.33443840E-04  5.32774286E-04  3.98308364E-04  3.06149862E-04  2.93182614E-04  2.83427450E-04  2.66811030E-04  1.84430779E-04  1.16699638E-04  1.61923147E-04  2.52677648E-04  2.22545143E-04  1.81129504E-04  1.88346446E-04
      4.66725804E-04  8.53930221E-04  9.48460492E-04  7.18110091E-04  3.40599440E-04  1.35035545E-04  3.56949070E-05  4.45880245E-05  7.01820764E-05  5.77905171E-05  3.81220623E-05       0.00229872  1.50409416E-04  4.19015763E-04  8.45001759E-04       0.00151086       0.00155568       0.00107460  8.07776947E-04  7.51989454E-04
      1.94813268E-04  4.39464701E-04  9.39390456E-04       0.00109536  8.53740232E-04  7.11772360E-04  8.52568326E-04  6.98711806E-04  3.48207111E-04  2.08202338E-04  1.70158749E-04  1.70317806E-04  2.26899025E-04  1.94592039E-04  1.45772882E-04  2.62245443E-04  3.72993055E-04  2.89715978E-04  2.58977823E-04  3.38895232E-04
      7.67601023E-04       0.00122552       0.00115027  4.64143160E-04  1.80149909E-04  1.22759171E-04  1.00142968E-04  1.12361713E-04  2.12814193E-04  1.73809964E-04  2.21764161E-05  2.05649124E-05  1.97681111E-04  4.72074990E-04  9.69622213E-04       0.00195349       0.00221416       0.00202748       0.00174402       0.00145127
      1.98663917E-04  3.67658557E-04  9.94350880E-04       0.00148729       0.00144121       0.00139436       0.00120869  7.97261312E-04  2.87412558E-04  1.23649424E-04  8.73509422E-05  7.72045795E-05  1.24657725E-04  1.52668053E-04  1.72868928E-04  3.23027616E-04  3.98602328E-04  3.71970491E-04  3.33767339E-04  3.85556840E-04
      7.17069237E-04  9.02178992E-04  7.23957769E-04  2.71662732E-04  1.19053133E-04  1.10876166E-04  1.77570140E-04  2.20230883E-04  4.61249056E-04  5.89404109E-04  1.20866211E-05  5.12901291E-05  2.02908361E-04  4.84365946E-04  9.35858770E-04       0.00154292       0.00224338       0.00248330       0.00308554       0.00282673
      2.10821762E-04  3.32071410E-04  8.94336359E-04       0.00153739       0.00170579       0.00167574       0.00128851  9.36000402E-04  2.71778138E-04  8.75030381E-05  5.30160937E-05  5.24208654E-05  1.04274271E-04  1.95417934E-04  2.48671572E-04  3.18636721E-04  3.65374161E-04  3.79816646E-04  2.71295463E-04  2.37539939E-04
      2.86724564E-04  3.45825226E-04  2.05239943E-04  1.06545351E-04  6.86123358E-05  7.41204153E-05  2.14680706E-04  3.51939433E-04  5.74535991E-04  5.37881122E-04  8.62179817E-06  1.66138547E-04  4.92752920E-04  6.21278154E-04  6.83227641E-04  8.13309826E-04       0.00139529       0.00219443       0.00353966       0.00264542
      1.34105872E-04  2.38565312E-04  6.41161642E-04       0.00115438       0.00116849  9.51634382E-04  8.12118817E-04  5.95987472E-04  1.89351546E-04  9.21270454E-05  5.97215856E-05  7.42164381E-05  1.59201949E-04  3.20736077E-04  3.27463943E-04  3.43584867E-04  4.64949029E-04  3.64044318E-04  1.88561428E-04  1.26150559E-04
      8.29133476E-05  8.93756343E-05  7.02112242E-05  4.46855994E-05  4.18210918E-05  6.00995184E-05  1.94350952E-04  4.80525549E-04  6.11601095E-04  2.76830960E-04  2.92543907E-05  5.56485983E-04       0.00111382  6.97470559E-04  4.13510136E-04  3.40418231E-04  5.83094809E-04       0.00111440       0.00163429  9.61047196E-04
      4.91119228E-05  1.08327085E-04  3.07511228E-04  5.55685305E-04  4.23191706E-04  3.26677354E-04  2.63774399E-04  2.25734115E-04  1.79938454E-04  1.65826360E-04  1.19712268E-04  1.54908220E-04  2.95283498E-04  5.00713414E-04  4.61821541E-04  4.37737512E-04  5.55281379E-04  4.01028633E-04  1.62851109E-04  8.36957213E-05
      4.16428006E-05  4.16769773E-05  3.84699855E-05  2.19860955E-05  2.82526354E-05  8.00270317E-05  3.22283555E-04  8.32068300E-04       0.00149636  8.33032729E-04  6.73486429E-04       0.00120868       0.00155603  6.62199364E-04  2.11117216E-04  1.57481638E-04  3.01732783E-04  4.55984898E-04  6.10884842E-04  3.71127055E-04
      2.60664738E-05  6.42306946E-05  1.64095231E-04  2.31497649E-04  1.92673358E-04  1.19371517E-04  8.57126948E-05  9.94926953E-05  2.11375047E-04  2.81131090E-04  2.32222369E-04  3.45281587E-04  5.47022286E-04  6.90010551E-04  7.86750760E-04  9.14228456E-04  9.79310934E-04  7.40118402E-04  6.81261027E-04       0.00100068
      9.97672821E-04  5.98659248E-04  5.37643780E-04  8.06042535E-04  6.14640212E-04  5.62984930E-04  6.13986527E-04  6.02072500E-04  6.04881436E-04  5.40696117E-04  3.75287537E-04  5.12217665E-04  3.90234057E-04  2.22272576E-04  1.37527211E-04  2.49126924E-04  1.68550033E-04  9.74571825E-05  7.04771974E-05  1.22675880E-04
      8.74618164E-05  4.93592563E-05  4.11433325E-05  6.47000691E-05  4.99730960E-05  3.11917651E-05  2.60005556E-05  3.50693632E-05  2.77782373E-05  2.81462178E-05  2.57957030E-05  2.10315342E-05  7.18728582E-05  2.63102878E-04  8.20898739E-04       0.00176135       0.00258276       0.00338053       0.00298870       0.00183987
      5.12048210E-04  1.55990122E-04  1.36342440E-04  1.81154103E-04  2.05950420E-04  3.03024225E-04  1.74890450E-04  2.77019015E-05  5.48971616E-05  1.21067721E-04  1.41487635E-04  1.25041921E-04  6.00464764E-05  3.89773082E-05  6.39354146E-05  1.84329890E-04  2.68687818E-04  2.26359810E-04  3.18131274E-04  7.29988251E-04
           0.00116816       0.00117808       0.00116041       0.00119385       0.00115222       0.00108704       0.00116449  9.99691155E-04  8.38990891E-04  5.97628376E-04  8.03863904E-04  6.72540509E-04  5.40682457E-04  4.60974632E-04  5.29825658E-04  3.92020554E-04  3.71369189E-04  3.20333032E-04  2.74279144E-04  2.69947694E-04
      2.49657014E-04  1.93256927E-04  2.27318719E-04  2.07113551E-04  1.49054315E-04  1.13612198E-04  1.68255383E-04  1.31733080E-04  8.26982987E-05  6.15191795E-05  9.46331187E-05  7.54843121E-05  4.13875722E-05  3.16273785E-05  5.20903298E-05  4.94269508E-05  3.00630851E-05  2.90087478E-05  2.38792396E-05  5.94372453E-05
      1.43016321E-04  3.87869539E-04  8.90044915E-04       0.00237357       0.00569750       0.00612811       0.00166926  4.75372089E-04  1.72118578E-04  1.30706198E-04  1.35924033E-04  1.37461191E-04  2.46223430E-04  2.16331359E-04  3.68260244E-05  6.42318747E-05  1.23180262E-04  1.54775662E-04  1.16918643E-04  5.15199262E-05
      3.43145850E-05  6.48211255E-05  1.72568912E-04  2.35507488E-04  1.73872602E-04  2.35395087E-04  6.83274455E-04  9.10763074E-04  8.67481664E-04  9.00485773E-04  8.53864396E-04  8.74259060E-04  8.52188608E-04  8.61923515E-04  8.44040360E-04  5.96013258E-04  5.99546146E-04  5.82232889E-04  5.88883272E-04  6.03556138E-04
      5.88883272E-04  6.03556138E-04  6.03556138E-04  6.03556138E-04  6.03556138E-04  7.58554893E-04  5.63885690E-04  8.09839225E-04  7.30443857E-04  8.09839225E-04  8.09839225E-04  8.09839225E-04  8.09839225E-04  7.30443857E-04  5.71203519E-04  4.07703351E-04  3.10789969E-04  4.13554505E-04  3.12140530E-04  2.62060199E-04
      1.96563742E-04  2.63623474E-04  1.94884768E-04  1.75599293E-04  1.29888047E-04  1.75821447E-04  1.36149018E-04  1.23937867E-04  1.36149018E-04  1.23937867E-04  1.23937867E-04  1.23937867E-04  1.23937867E-04  1.01225219E-04  8.50532111E-05  1.06404218E-04  9.69628938E-05  1.06404218E-04  1.06404218E-04  1.06404218E-04
      1.06404218E-04  9.69628938E-05  8.53899701E-05  6.22531300E-05  5.49559618E-05  6.26393423E-05  5.51240088E-05  2.91559843E-05  3.25366830E-05  5.12787695E-05  5.61103478E-05  1.10062815E-04  2.34442759E-04  5.19611541E-04       0.00146961       0.00494088       0.00555608       0.00134695  4.37118728E-04  2.14242049E-04
      1.56478656E-04  1.24496303E-04  1.31445523E-04  2.53297837E-04  2.83761109E-04  1.20646186E-04  1.84126045E-04  2.68231206E-04  3.08716207E-04  1.66228737E-04  5.24863703E-05  3.61004952E-05  7.93216469E-05  1.65098908E-04  1.95903490E-04  9.98603384E-05  1.26141439E-04  4.59073468E-04  7.46091358E-04  6.54464536E-04
      7.46442224E-04  6.58120500E-04  6.13276019E-04  5.97951346E-04  6.18552333E-04  6.02245788E-04  6.24071774E-04  6.45037246E-04  6.62411540E-04  6.62411540E-04  6.62411540E-04  6.62411540E-04  6.45037246E-04  6.62411540E-04  6.26435011E-04  6.53789696E-04  6.40736788E-04  6.40736788E-04  6.40736788E-04  6.40736788E-04
      5.75355639E-04  6.40736788E-04  5.75355639E-04  4.55864137E-04  6.06576332E-04  4.55830031E-04  5.25268945E-04  3.35806314E-04  5.21631031E-04  3.36312249E-04  2.52070303E-04  1.73042424E-04  2.49686450E-04  1.72455976E-04  1.28311241E-04  1.40021047E-04  1.35323397E-04  1.35323397E-04  1.35323397E-04  1.35323397E-04
      1.40021047E-04  1.35323397E-04  1.28260663E-04  1.37348351E-04  1.17714571E-04  1.17714571E-04  1.17714571E-04  1.17714571E-04  1.11584721E-04  1.17714571E-04  1.11584721E-04  1.02587308E-04  1.14618205E-04  1.03258666E-04  9.23111027E-05  5.83659554E-05  9.28604923E-05  5.87498027E-05  4.10273290E-05  4.52699328E-05
      6.44342958E-05  5.96164979E-05  6.26228902E-05  7.71085952E-05  1.69284005E-04  5.09783592E-04       0.00224760       0.00258754  9.63075644E-04  3.56662148E-04  2.72334147E-04  2.73136331E-04  1.34366424E-04  1.36517562E-04  3.07276909E-04  3.20786980E-04  2.18584491E-04  4.51904965E-04  5.48616925E-04  5.68763878E-04
      2.71231091E-04  8.88960381E-05  5.47766706E-05  1.05166062E-04  1.93278653E-04  1.86953269E-04  1.00243325E-04  1.32023488E-04  4.11585578E-04  7.30381667E-04  7.16786372E-04  4.14368650E-04  3.66445739E-04  7.16298209E-04  6.87721503E-04  4.21599475E-04  4.92853513E-04  6.78576496E-04  6.49968905E-04  6.22191189E-04
      5.50978366E-04  6.03417788E-04  4.48615645E-04  4.71305505E-04  3.63114680E-04  3.38495751E-04  3.42679742E-04  2.93278507E-04  2.13177626E-04  1.87089651E-04  1.56193704E-04  1.78198937E-04  1.25336305E-04  1.26274222E-04  1.30451399E-04  1.20076181E-04  1.30934980E-04  1.17333979E-04  1.21430795E-04  1.44722491E-04
      1.48780779E-04  1.07351566E-04  6.93711269E-05  1.25420693E-04  8.69452896E-05  4.91214623E-05  4.55034673E-05  8.60731049E-05  6.00763175E-05  4.86931647E-05  6.20177325E-05  1.28124165E-04  3.56710602E-04       0.00128096       0.00130443  7.45944951E-04  3.76086907E-04  3.11556832E-04  3.61238914E-04  1.62944691E-04
      1.60244714E-04  2.87891140E-04  2.87014712E-04  5.62414158E-04       0.00166938       0.00185513       0.00139641  5.39973127E-04  1.97489032E-04  1.42299701E-04  1.85939845E-04  2.70023482E-04  2.12357221E-04  1.30389518E-04  1.50208518E-04  4.20948826E-04  3.35518126E-04  3.41984317E-04  5.39525526E-04  5.30550718E-04
      6.87455585E-04  6.65198029E-04  6.42624290E-04  6.19871359E-04  5.56191118E-04  4.43490119E-04  4.76543427E-04  3.15455362E-04  3.34033701E-04  2.60118398E-04  2.32993649E-04  1.80716299E-04  2.35516544E-04  2.20228302E-04  1.67139580E-04  1.65461030E-04  1.89192188E-04  1.24218081E-04  1.35135126E-04  1.35562867E-04
      1.11169187E-04  1.30236488E-04  1.30844889E-04  1.41602944E-04  1.76585397E-04  1.70152325E-04  1.53912636E-04  1.48518236E-04  1.42923379E-04  1.02182812E-04  1.32348728E-04  1.26039275E-04  6.33048858E-05  7.13540324E-05  1.53269871E-04  1.44885360E-04  9.73233834E-05  7.93738444E-05  1.07381383E-04  2.13546748E-04
      3.13506577E-04  2.47195964E-04  2.44079147E-04  2.95047910E-04  3.53257128E-04  4.38686352E-04  2.61990095E-04  2.61575728E-04  3.30341100E-04  2.76610950E-04       0.00124763       0.00403038       0.00549005       0.00300803  9.89280839E-04  3.76574102E-04  2.79209479E-04  2.13929295E-04  2.57811225E-04  2.03523858E-04
      1.49024694E-04  1.91341669E-04  3.47092933E-04  6.45708992E-04  7.64588437E-04  3.78589989E-04  1.92212046E-04  1.49370781E-04  1.50816594E-04  1.62766518E-04  1.72696054E-04  1.30954295E-04  1.15779881E-04  1.48187409E-04  3.22898697E-04  2.96799414E-04  1.50379361E-04  9.28491166E-05  1.08756645E-04  1.19815423E-04
      9.96371078E-05  5.95210709E-05  6.25817792E-05  1.26096359E-04  2.94304567E-04  5.30612641E-04  4.90341498E-04  5.75498318E-04  5.30394769E-04  2.92309525E-04       0.00222843       0.00636129       0.00846127       0.00398709       0.00118077  6.28781270E-04  4.05188281E-04  2.79403576E-04  2.80985690E-04  2.60395699E-04
      2.34831563E-04  2.19621839E-04  4.43048989E-04  6.98812131E-04  6.70505469E-04  4.52862328E-04  3.69225623E-04  2.70009630E-04  1.63385198E-04  1.49044169E-04  1.32433511E-04  1.34652717E-04  1.17014276E-04  1.83810449E-04  4.26760714E-04  4.21518731E-04  1.72698031E-04  9.12314793E-05  9.20153929E-05  8.23810473E-05
      4.75630630E-05  2.64086778E-05  3.19695561E-05  7.33009963E-05  2.69532026E-04  7.51662240E-04  9.94972604E-04       0.00107826  7.92551243E-04  3.60044203E-04       0.00285752       0.00637165       0.00646267       0.00250069  8.36250311E-04  5.47580721E-04  4.27262869E-04  3.29613191E-04  3.31376244E-04  3.44411198E-04
      3.59100729E-04  3.81681519E-04  5.22536009E-04  6.40317592E-04  5.63635442E-04  5.06750456E-04  4.20191349E-04  3.13468970E-04  2.10669151E-04  1.39539791E-04  1.41143078E-04  1.17155241E-04  1.57219553E-04  2.10721486E-04  4.50032791E-04  3.45212913E-04  1.49435166E-04  8.02031795E-05  7.45519985E-05  6.88459840E-05
      4.44497474E-05  3.20093645E-05  3.61290744E-05  8.69319636E-05  3.72656837E-04       0.00125989       0.00211429       0.00186855       0.00119777  4.72631881E-04       0.00150603       0.00237202       0.00276352  8.64562769E-04  3.85628991E-04  4.89020333E-04  5.67563361E-04  3.79350090E-04  3.47543367E-04  4.37044502E-04
      5.43768112E-04  4.47518709E-04  5.12585149E-04  5.72126039E-04  5.64374635E-04  4.95024514E-04  5.21243565E-04  3.15280555E-04  2.03639552E-04  1.53082525E-04  1.27640588E-04  1.09543743E-04  1.30701384E-04  2.10524691E-04  2.54893988E-04  1.69836323E-04  1.02819266E-04  7.85474368E-05  6.91388921E-05  7.42720824E-05
      5.53105560E-05  4.48255431E-05  5.95043528E-05  1.41610779E-04  4.69315136E-04       0.00137831       0.00256310       0.00222562       0.00144790  6.00856843E-04       0.00237295  7.54538497E-04  9.74190330E-04  4.63245167E-04  3.74648086E-04  6.69979330E-04  8.27069579E-04  6.15202028E-04  5.79397193E-04  8.40122298E-04
      8.32170503E-04  4.58186335E-04  4.15565664E-04  5.27023569E-04  5.72260436E-04  5.45212423E-04  5.41476661E-04  2.68824164E-04  2.32012592E-04  1.58770765E-04  1.06279741E-04  7.91533526E-05  8.38635452E-05  1.93791139E-04  2.92018492E-04  9.85600272E-05  1.10693534E-04  7.84575398E-05  7.47578964E-05  8.33513341E-05
      7.32431170E-05  6.00591448E-05  6.78500332E-05  1.40387420E-04  4.68795849E-04       0.00113363       0.00199355       0.00199563       0.00129174  6.43786181E-04       0.00134243  2.89160044E-04  2.85486989E-04  3.11750887E-04  5.70505435E-04  9.40746335E-04       0.00100406       0.00113129       0.00114423       0.00115784
           0.00112081  6.02772951E-04  4.76680739E-04  6.35283123E-04  7.86260524E-04  6.22011099E-04  5.92827095E-04  3.06351302E-04  2.28589741E-04  1.56727943E-04  9.01408062E-05  6.61605493E-05  6.30566087E-05  9.85142350E-05  1.01255747E-04  1.12686146E-04  1.50440624E-04  1.15538882E-04  9.94855408E-05  1.01212275E-04
      9.46754469E-05  9.54947773E-05  1.21921086E-04  1.90139950E-04  4.19195106E-04  8.03374655E-04       0.00133695       0.00107192  8.12680037E-04  4.98395980E-04  6.83760812E-04  1.95030465E-04  1.66054410E-04  2.16542620E-04  5.96357932E-04  8.39339083E-04       0.00106603       0.00129777       0.00149393       0.00128385
      9.30861774E-04  6.31741132E-04  6.42604908E-04       0.00106576       0.00100836  7.44426931E-04  6.67176833E-04  3.93253134E-04  1.57422753E-04  1.21145381E-04  1.11841769E-04  1.09213313E-04  6.76389082E-05  6.63719742E-05  1.27896706E-04  2.15270455E-04  2.40222689E-04  2.09120686E-04  1.68369191E-04  1.54830364E-04
      1.30051323E-04  1.49114426E-04  2.20772758E-04  2.41172453E-04  3.47246625E-04  5.30615689E-04  7.38594066E-04  7.79354487E-04  4.78009220E-04  3.02233213E-04  2.00273548E-04  1.17892173E-04  1.09830938E-04  1.69855463E-04  5.14150780E-04  4.85248929E-04  5.85347694E-04  8.55119705E-04       0.00110558       0.00110422
      7.74132638E-04  6.97559978E-04  9.63101138E-04       0.00158587       0.00137252       0.00100730  6.73372574E-04  3.11163301E-04  1.49160233E-04  1.40617337E-04  1.56771715E-04  1.68208007E-04  8.43791826E-05  1.04108748E-04  2.35820706E-04  6.52073212E-04  5.60446435E-04  4.11335276E-04  3.54354230E-04  2.75380695E-04
      2.00912032E-04  2.18962991E-04  3.12679212E-04  2.85350697E-04  2.31066829E-04  3.04171032E-04  5.05337130E-04  6.20353021E-04  4.62206290E-04  2.81687044E-04  1.50720955E-04  5.89717462E-05  4.51391490E-05  8.80628442E-05  2.85707704E-04  2.46241094E-04  3.29723385E-04  4.90378157E-04  5.39515129E-04  5.86789499E-04
      7.17325685E-04  7.39950145E-04  9.41419409E-04       0.00165457       0.00162004       0.00101315  5.12965872E-04  2.57075549E-04  1.96100436E-04  2.40560962E-04  2.50545898E-04  2.36246524E-04  1.31395769E-04  1.55815931E-04  3.11544015E-04  9.10374519E-04       0.00103287       0.00103932  6.79621571E-04  4.84468084E-04
      2.77859443E-04  3.07407193E-04  2.63451084E-04  1.94596105E-04  1.95188139E-04  2.31007756E-04  3.67133005E-04  4.72682019E-04  4.67781929E-04  4.43653495E-04  1.23976079E-04  4.36470046E-05  3.05321797E-05  5.48133977E-05  1.82443786E-04  1.89262723E-04  2.56287913E-04  3.82286319E-04  3.78387819E-04  4.74547226E-04
      8.20561567E-04  6.99979029E-04  7.07825831E-04       0.00111096       0.00123926  8.63823139E-04  3.85476963E-04  2.43734402E-04  2.13889444E-04  2.89423187E-04  2.87272183E-04  2.91197339E-04  1.85742312E-04  1.85597740E-04  3.84317854E-04  9.34979819E-04       0.00115421       0.00154116  9.63342006E-04  5.88577481E-04
      2.86085172E-04  2.92994403E-04  2.05334642E-04  1.40837354E-04  1.60259369E-04  1.98526215E-04  3.38507907E-04  4.44950921E-04  5.23217011E-04  5.92788191E-04
    INTERNAL  FACTOR  1.0
      4.47268006E-04  5.24261315E-04  5.55536509E-04  3.34422089E-04  2.29421053E-04  1.61394369E-04  2.33160397E-08  2.86373182E-08  6.22062437E-08  1.10927443E-04  4.66430598E-04       0.00106062  7.51929176E-04  2.20528715E-04  6.90053650E-05  3.56062677E-05  6.02954515E-05  1.01935357E-04  1.01946318E-04  9.81283313E-05
      1.03732715E-04  1.90210075E-04  6.31918598E-09  2.18323393E-09  5.22954627E-09  2.01106317E-08  2.38960107E-08  1.58408685E-08  9.62971981E-09  5.30821220E-09  3.62240590E-09  5.92152888E-09  3.89086345E-05  5.71644621E-05  6.04035705E-05  1.02092554E-04  1.64441395E-04  2.03502088E-04  2.07404872E-04  1.38776771E-04
      4.15061666E-04  5.73707430E-04  6.28235789E-04  3.74472524E-04  2.14433829E-04  1.19641433E-04  4.09525731E-08  4.87301233E-08  2.22493315E-06  1.26527012E-04  5.44729172E-04  9.41237697E-04  5.11012775E-04  1.61371453E-04  5.57635637E-05  3.14724192E-05  5.52484452E-05  1.11517209E-04  1.08185472E-04  9.33296923E-05
      1.27980885E-04  1.75638352E-04  5.13901546E-05  2.71545961E-09  5.80148141E-09  1.80362455E-08  2.04966712E-08  1.45389422E-08  8.84445742E-09  4.62372756E-09  3.49329833E-09  7.98963241E-09  6.14867220E-05  7.01666795E-05  7.57956873E-05  1.39329861E-04  1.47298087E-04  1.55007605E-04  1.29207385E-04  1.09912285E-04
      2.16419843E-04  5.88720406E-04  8.64710642E-04  4.17245788E-04  1.53160538E-04  7.45340861E-05  8.98638959E-08  1.74218916E-07  8.18212811E-05  1.98896690E-04  5.67872465E-04  7.31959515E-04  2.86545690E-04  9.83602527E-05  4.48332043E-05  2.99823819E-05  6.35064552E-05  1.07605042E-04  9.10596222E-05  8.84040897E-05
      1.41962661E-04  2.28544994E-04  3.51409144E-04  9.24867762E-09  6.46611712E-09  1.27435937E-08  2.47492359E-08  1.20456668E-08  7.79664637E-09  9.34672880E-07  3.94887090E-04  5.20278490E-04  6.56024474E-05  1.29967535E-04  1.81439477E-04  2.20202049E-04  1.54877357E-04  1.35324036E-04  1.17114041E-04  1.71411071E-04
      1.76970388E-04  4.99992622E-04  7.36959438E-04  4.56736166E-04  1.83572577E-04  7.16807042E-05  8.98995752E-06  7.56157721E-05  1.92159244E-04  2.82131819E-04  4.48948822E-04  4.97695501E-04  2.72683379E-04  1.01103179E-04  6.42586869E-05  5.99416605E-05  1.11077912E-04  1.18855876E-04  1.03542629E-04  9.96226718E-05
      2.11062713E-04  4.62189886E-04  5.17834056E-04  1.75820123E-04  1.45565111E-04  2.67110297E-05       0.00107079  1.05131029E-08  8.56936407E-09       0.00138993       0.00840128       0.00855311       0.00546045  2.61651324E-04  5.18940097E-04  5.00430159E-04  2.71635776E-04  2.01146056E-04  1.92934866E-04  2.40675328E-04
      1.92738387E-04  3.94480643E-04  6.90219816E-04  5.60419783E-04  2.54230649E-04  9.67637617E-05  7.90329176E-05  1.71148309E-04  2.69069922E-04  2.94434117E-04  3.06433981E-04  2.85057091E-04  2.55351486E-04  1.86651640E-04  1.11874487E-04  1.50991975E-04  2.22677867E-04  2.05536394E-04  1.70301841E-04  1.94474267E-04
      5.05301482E-04  8.53666321E-04  4.71797389E-04  9.59128109E-04  5.87627526E-04  1.39007620E-04  4.12007032E-04  9.36738574E-06  3.72156069E-05       0.00458038       0.00789786       0.00528720       0.00450976  4.28208204E-04  7.11179043E-04       0.00115520  6.23586816E-04  4.46190876E-04  3.18628288E-04  3.38240169E-04
      1.67759478E-04  3.60660085E-04  7.09251549E-04  7.90706976E-04  4.61248209E-04  1.98799209E-04  1.76690476E-04  2.93073011E-04  2.69646551E-04  2.12584885E-04  1.76789293E-04  1.64727103E-04  2.17324041E-04  2.14981408E-04  1.70617250E-04  2.73144710E-04  3.53912908E-04  2.75227721E-04  2.53846297E-04  3.46286567E-04
      8.23589792E-04       0.00104612  5.26122730E-04       0.00241032  4.72101051E-04  2.80975099E-04  1.21570262E-05  3.54591787E-05  1.42535121E-04  3.27352049E-04       0.00858285       0.00429677       0.00235112  6.90344894E-04       0.00100852       0.00188372       0.00117358  7.88200360E-04  6.37179574E-04  4.93553117E-04
      2.07640094E-04  3.76328891E-04  7.41820829E-04       0.00105787  6.81723566E-04  4.12105177E-04  3.12302972E-04  3.47711160E-04  2.25143418E-04  1.22964242E-04  9.38839657E-05  7.80090858E-05  1.26685297E-04  1.74714899E-04  2.17745436E-04  3.52168816E-04  3.97476552E-04  3.68567469E-04  3.45755182E-04  3.86354458E-04
      6.92612856E-04  6.07462769E-04       0.00113776       0.00213510  2.31517086E-04  5.84581202E-09  5.43674380E-09  1.32061831E-08  3.67537989E-04  7.32548667E-04       0.00251374       0.00482559       0.00314875  5.79697810E-04  9.97864375E-04       0.00160625       0.00133365  9.81998857E-04       0.00107240  9.03578265E-04
      2.17851503E-04  3.48677523E-04  6.97927167E-04       0.00109700  8.22632023E-04  6.10514447E-04  5.15599777E-04  5.76885542E-04  2.02124978E-04  8.91711177E-05  5.89205224E-05  5.95113046E-05  9.22764058E-05  1.77523959E-04  2.41080487E-04  3.33825068E-04  3.62051700E-04  4.03770034E-04  2.65069156E-04  2.22858908E-04
      2.19960360E-04  1.52535797E-04  3.20226540E-04  6.43940205E-04  8.12663208E-09  3.93431183E-09  4.01657065E-09  1.05675825E-08  7.77898907E-04  5.05433957E-04       0.00140963       0.00180748       0.00123223  6.30030593E-04  6.88839916E-04  7.99089366E-04       0.00105841       0.00113076       0.00103318  7.05115050E-04
      1.43081011E-04  2.55850751E-04  6.20702732E-04  8.33464651E-04  6.77355758E-04  3.94806547E-04  4.38080235E-04  4.03504092E-04  1.42456101E-04  8.24592570E-05  6.30665973E-05  6.29870579E-05  8.63950847E-05  2.01305810E-04  2.33483957E-04  2.67407180E-04  3.28282862E-04  3.03399145E-04  1.47359235E-04  9.09208760E-05
      4.37472868E-05  1.89085001E-05  1.10692798E-08  3.92744976E-05  2.10373680E-09  1.60932119E-09  1.99238612E-09  4.51188845E-04  9.20422268E-04  4.24485885E-04       0.00125156  9.59353161E-04  8.75620157E-04  6.73504764E-04  3.89920147E-04  3.17621142E-04  6.12148464E-04  9.07434609E-04  8.29640422E-04  3.74808637E-04
      4.93730419E-05  1.07254279E-04  3.02396029E-04  4.62951696E-04  2.92418039E-04  2.00753452E-04  1.55437950E-04  1.37393426E-04  1.07064353E-04  1.13896562E-04  7.77125987E-05  8.61410663E-05  7.09167194E-05  1.13541973E-04  1.85036392E-04  1.98724354E-04  2.15147303E-04  2.11576697E-04  9.38987865E-05  3.76608705E-05
      1.09081117E-05  3.08756122E-08  9.54542006E-09  3.99378755E-09  1.25917737E-09  7.67161011E-10  6.64152626E-10  7.44009859E-05  2.26759235E-04  2.62977083E-04  2.77584373E-04  4.02196527E-04  6.24428016E-04  6.27489878E-04  1.96608380E-04  1.46416413E-04  2.67028320E-04  4.18124731E-04  4.37188016E-04  2.43331673E-04
      2.57664792E-05  6.04357803E-05  1.61324387E-04  2.27216390E-04  1.28271819E-04  6.26822077E-05  3.53451177E-05  3.51069858E-05  7.66076781E-05  1.41960762E-04  9.56695500E-05  9.06417434E-05  9.75710987E-06  3.76403494E-05  1.54660047E-04  8.08196324E-08  2.57686679E-05  1.44986273E-04  1.57084026E-04  2.36294156E-05
      2.29845670E-05  1.44987116E-04  1.17969974E-04  2.12702402E-05  1.87106119E-05  1.20569239E-04  1.45397897E-04  1.95248139E-05  2.19149413E-05  1.46648158E-04  9.97029993E-05  1.92098226E-05  1.35281184E-05  5.69110987E-05  4.27655326E-05  5.34841955E-05  3.77291220E-05  4.17360010E-05  2.98012028E-05  2.96407596E-05
      2.09652418E-05  1.17013273E-05  2.91515390E-06  1.39099746E-05  1.36607054E-08  1.30792764E-08  1.31593851E-08  1.00014089E-08  1.33620554E-08  9.96234977E-09  4.16969168E-09  1.48904703E-09  5.92705318E-10  3.61465366E-10  2.01712061E-05  8.69506421E-05  2.56453716E-04  1.22025273E-04  1.75854018E-04       0.00108174
      4.94253411E-04  1.59353490E-04  1.36596997E-04  1.74806701E-04  1.89975258E-04  2.52568363E-04  1.34645576E-04  2.73843196E-05  4.99256753E-05  1.16244457E-04  1.42372075E-04  9.12741434E-05  3.03524627E-05  1.42566697E-05  1.27837086E-05  3.67357067E-05  8.50113760E-05  6.64704316E-05  8.06811930E-06  6.39898500E-08
      5.40177589E-08  4.53647127E-08  6.30025431E-08  5.33853456E-08  4.35343295E-08  3.53467460E-08  3.92853544E-08  2.99148441E-08  2.94705016E-08  2.68929049E-08  2.56682777E-08  2.32387742E-08  2.45937658E-08  2.22351844E-08  2.29328409E-08  2.31421846E-08  1.87555373E-08  1.89824625E-08  1.91999922E-08  1.82681790E-08
      6.56325511E-06  7.06580989E-06  1.80173703E-08  2.09258109E-08  3.07846652E-05  2.31373794E-05  5.43583918E-06  2.65433246E-05  4.16393637E-06  1.32201522E-08  2.38002564E-08  1.05236161E-08  1.06656601E-08  1.57503911E-08  1.31949155E-08  1.71339597E-08  1.34336953E-08  6.62625489E-09  2.34504939E-09  8.61769516E-10
      4.99514808E-10  1.73726656E-05  9.21341244E-05  4.03494434E-04       0.00105631       0.00339456       0.00142622  4.91829180E-04  1.81485608E-04  1.55415613E-04  1.64038934E-04  1.39890146E-04  2.23795331E-04  1.93194750E-04  3.54352649E-05  5.79632176E-05  1.18351478E-04  1.52415888E-04  8.34046895E-05  2.50230317E-05
      1.26276314E-05  1.02539490E-05  2.29951621E-05  6.83167064E-05  2.97744034E-05  4.31586781E-08  6.71511494E-08  6.75268415E-08  4.86111594E-08  6.76834654E-08  4.83700796E-08  3.05161899E-08  2.40783326E-08  3.01657365E-08  2.38548641E-08  2.15681084E-08  2.15320223E-08  2.14103531E-08  2.13631885E-08  2.15816964E-08