# File generated by Flopy version 3.9.1 on 06/24/2025 at 08:46:16.
BEGIN options
  SAVE_FLOWS
  SAVE_SPECIFIC_DISCHARGE
  SAVE_SATURATION
END options

BEGIN griddata
  icelltype
    CONSTANT  0
  k  LAYERED
    INTERNAL  FACTOR  1.0
      4.00730900E-04  6.66792589E-04  6.91812702E-04  4.22360983E-04  3.53742542E-04  5.27994564E-04  5.80806912E-04  2.67176396E-04  2.30509703E-04  4.02870924E-04  8.63466275E-04       0.00112119  7.65743738E-04  2.50967641E-04  8.34394244E-05  4.31781239E-05  6.22642222E-05  1.01417122E-04  1.01818486E-04  9.60246101E-05
      1.35594424E-04  2.86772497E-04       0.00138074       0.00185452  5.66648930E-04  2.38290282E-04  1.21477198E-04  6.66416433E-05  2.88582351E-05  2.94767033E-05  1.03596838E-04  2.09214522E-04  2.63671368E-04  2.26670911E-04  2.04621225E-04  2.97613200E-04  4.29265400E-04  4.67659981E-04  4.86490103E-04  5.28969679E-04
      3.81973145E-04  7.11748854E-04  7.97405948E-04  4.74430746E-04  3.29452519E-04  3.98335078E-04  4.64472749E-04  2.35310957E-04  1.77225400E-04  3.15369799E-04  7.10142666E-04  9.50788315E-04  5.29795689E-04  1.67892829E-04  6.08856574E-05  3.48460981E-05  5.67451825E-05  1.11244094E-04  1.05178203E-04  8.82134480E-05
      1.42911735E-04  2.59224783E-04       0.00117013       0.00180615  5.10529900E-04  1.90005717E-04  1.00505957E-04  5.07136444E-05  2.20119457E-05  2.24111704E-05  8.06523548E-05  1.90957318E-04  3.04108334E-04  3.42192501E-04  3.48545920E-04  4.04419940E-04  3.92599310E-04  3.87921571E-04  4.22009108E-04  4.94892351E-04
      2.67146182E-04  6.78128278E-04       0.00104884  5.46307115E-04  3.12232979E-04  2.90756814E-04  3.32887346E-04  2.39607553E-04  2.21143085E-04  2.57059033E-04  5.46717815E-04  7.44577956E-04  3.07389675E-04  1.10287650E-04  5.01467688E-05  3.25297926E-05  6.69754660E-05  1.10619238E-04  8.35909031E-05  8.27185690E-05
      1.48712940E-04  3.07873563E-04  9.68761688E-04       0.00141953  4.13542414E-04  1.18690561E-04  5.15373529E-05  3.59210963E-05  3.08817499E-05  2.62938684E-05  4.92189863E-05  1.04448019E-04  2.72614658E-04  5.42179274E-04  8.15786581E-04  7.13476341E-04  4.09586102E-04  3.24882562E-04  3.51944874E-04  4.78023121E-04
      2.19944949E-04  5.85265200E-04  8.96054420E-04  6.05468340E-04  3.71605090E-04  2.73264769E-04  3.14793169E-04  3.67115666E-04  3.34565427E-04  3.06367095E-04  4.58141089E-04  4.93896677E-04  2.75233115E-04  1.08649582E-04  7.38282783E-05  6.74595951E-05  1.32540180E-04  1.31381697E-04  9.83145520E-05  9.99386201E-05
      2.16430666E-04  4.86230979E-04  9.19501508E-04  9.54581012E-04  4.17945467E-04  1.32892498E-04  2.73585113E-05  2.75127421E-05  4.44305591E-05  3.79456820E-05  3.46339708E-05  5.70495644E-05  1.81445873E-04  4.77826572E-04       0.00108863       0.00110801  6.98280124E-04  4.70218864E-04  4.46937057E-04  5.13644700E-04
      2.25956565E-04  5.21935436E-04  8.75546884E-04  7.06192568E-04  4.64368663E-04  3.41975260E-04  4.33426114E-04  5.32772767E-04  3.98300065E-04  3.06142538E-04  2.93173075E-04  2.83417874E-04  2.66790019E-04  1.84428009E-04  1.16699018E-04  1.61916856E-04  2.52660242E-04  2.22544401E-04  1.81127115E-04  1.88342338E-04
      4.66724244E-04  8.53926819E-04  9.48438167E-04  7.17791538E-04  3.40180777E-04  1.35025306E-04  3.56384900E-05  4.43961555E-05  6.99963237E-05  5.77904269E-05  3.79174039E-05       0.00229869  1.50408329E-04  4.19010369E-04  8.44990238E-04       0.00151083       0.00155566       0.00107460  8.07774804E-04  7.51984328E-04
      1.94812292E-04  4.39462857E-04  9.39348075E-04       0.00109535  8.53730238E-04  7.11756392E-04  8.52545565E-04  6.98684918E-04  3.48194481E-04  2.08201293E-04  1.70156157E-04  1.70314061E-04  2.26898007E-04  1.94590756E-04  1.45770611E-04  2.62241392E-04  3.72989874E-04  2.89710531E-04  2.58972693E-04  3.38894432E-04
      7.67576476E-04       0.00122551       0.00115027  4.64131279E-04  1.79766748E-04  1.22756515E-04  1.00046160E-04  1.12089575E-04  2.12553194E-04  1.73572272E-04  2.21308788E-05  2.05511269E-05  1.97251334E-04  4.72066745E-04  9.69618159E-04       0.00195348       0.00221415       0.00202747       0.00174398       0.00145123
      1.98663475E-04  3.67650485E-04  9.94336988E-04       0.00148729       0.00144116       0.00139436       0.00120869  7.97258677E-04  2.87397351E-04  1.23648862E-04  8.73504950E-05  7.72034029E-05  1.24650893E-04  1.52661571E-04  1.72868563E-04  3.23019599E-04  3.98599615E-04  3.71966381E-04  3.33766425E-04  3.85544578E-04
      7.17065036E-04  9.02168469E-04  7.23946056E-04  2.71653191E-04  1.18359617E-04  1.10873020E-04  1.77567557E-04  2.19634282E-04  4.61183114E-04  5.88772573E-04  1.19790800E-05  5.10318041E-05  2.02691141E-04  4.84362709E-04  9.35833797E-04       0.00154292       0.00224336       0.00248322       0.00308544       0.00282671
      2.10820711E-04  3.32070069E-04  8.94331220E-04       0.00153732       0.00170577       0.00167573       0.00128850  9.35993399E-04  2.71767372E-04  8.75015634E-05  5.30152542E-05  5.24206641E-05  1.04270848E-04  1.95413960E-04  2.48665403E-04  3.18627020E-04  3.65373190E-04  3.79810755E-04  2.71289788E-04  2.37538542E-04
      2.86708790E-04  3.45821956E-04  2.05155209E-04  1.06533408E-04  6.83976615E-05  7.40051959E-05  2.14449328E-04  3.50408873E-04  5.74237903E-04  5.36673161E-04  7.35202944E-06  1.64755568E-04  4.92635033E-04  6.21233246E-04  6.83198686E-04  8.13264712E-04       0.00139526       0.00219442       0.00353960       0.00264541
      1.34103304E-04  2.38557080E-04  6.41157638E-04       0.00115430       0.00116847  9.51623743E-04  8.12095066E-04  5.95986738E-04  1.89328505E-04  9.21157327E-05  5.97214690E-05  7.42149635E-05  1.59199711E-04  3.20734111E-04  3.27454776E-04  3.43582579E-04  4.64946774E-04  3.64026202E-04  1.88559461E-04  1.26129229E-04
      8.29130274E-05  8.93686938E-05  7.01963492E-05  4.45684670E-05  4.17367300E-05  6.00988289E-05  1.93224675E-04  4.78404501E-04  6.09712769E-04  2.76301576E-04  2.36606977E-05  5.50782368E-04       0.00111374  6.97340853E-04  4.13499834E-04  3.40418195E-04  5.83084851E-04       0.00111439       0.00163428  9.61033243E-04
      4.91091769E-05  1.08323476E-04  3.07503779E-04  5.55683166E-04  4.23191004E-04  3.26662798E-04  2.63768765E-04  2.25701585E-04  1.79921280E-04  1.65823181E-04  1.19709258E-04  1.54907690E-04  2.95278472E-04  5.00711428E-04  4.61813829E-04  4.37732974E-04  5.55262763E-04  4.01026979E-04  1.62841115E-04  8.36951340E-05
      4.16426899E-05  4.16221185E-05  3.82898369E-05  2.19593018E-05  2.82010213E-05  8.00263798E-05  3.21430230E-04  8.29776906E-04       0.00148419  8.32594526E-04  6.68022731E-04       0.00119848       0.00155602  6.62166631E-04  2.11116598E-04  1.57477791E-04  3.01726316E-04  4.55971975E-04  6.10881970E-04  3.71123903E-04
      2.60654444E-05  6.42298209E-05  1.64093842E-04  2.31489578E-04  1.92670222E-04  1.19354037E-04  8.57066359E-05  9.94767495E-05  2.11365538E-04  2.81126379E-04  2.32198118E-04  3.45259114E-04  5.47020091E-04  6.90010520E-04  7.86759180E-04  9.14226523E-04  9.79318600E-04  7.40110200E-04  6.81257154E-04       0.00100066
      9.97669384E-04  5.98658831E-04  5.37754009E-04  8.06039873E-04  6.14652358E-04  5.62979323E-04  6.13980937E-04  6.02072020E-04  6.04854494E-04  5.40695912E-04  3.75301039E-04  5.12216303E-04  3.90236239E-04  2.22272200E-04  1.37526955E-04  2.49122396E-04  1.68548642E-04  9.74571451E-05  7.04777814E-05  1.22675799E-04
      8.74619651E-05  4.93581387E-05  4.11423899E-05  6.46996488E-05  4.99730800E-05  3.11896855E-05  2.60906270E-05  3.50693558E-05  2.78672242E-05  2.80765904E-05  2.56525800E-05  2.09796013E-05  7.18656528E-05  2.62476518E-04  8.16661968E-04       0.00175938       0.00258265       0.00337952       0.00298141       0.00183976
      5.12043366E-04  1.55987554E-04  1.36336212E-04  1.81145480E-04  2.05946309E-04  3.03021409E-04  1.74884395E-04  2.76999374E-05  5.48968591E-05  1.21067059E-04  1.41480451E-04  1.25041075E-04  6.00447591E-05  3.89769545E-05  6.39349038E-05  1.84325441E-04  2.68684086E-04  2.26346510E-04  3.18060069E-04  7.29625574E-04
           0.00116815       0.00117808       0.00116041       0.00119385       0.00114665       0.00108703       0.00116448  9.89953255E-04  8.38989180E-04  5.97629873E-04  8.03845463E-04  6.72547148E-04  5.40667751E-04  4.60960411E-04  5.29811407E-04  3.92019210E-04  3.71368748E-04  3.20339811E-04  2.74270791E-04  2.72172105E-04
      2.49645838E-04  1.93256791E-04  2.27206454E-04  2.07113082E-04  1.49053818E-04  1.13612552E-04  1.68255136E-04  1.31733135E-04  8.26979172E-05  6.15191696E-05  9.46322896E-05  7.54841725E-05  4.13874332E-05  3.17091339E-05  5.20903233E-05  4.94341938E-05  3.00605429E-05  2.87491063E-05  2.37426630E-05  5.94331266E-05
      1.42519829E-04  3.84903346E-04  8.89590874E-04       0.00237265       0.00569730       0.00612685       0.00166924  4.75292244E-04  1.72116864E-04  1.30696585E-04  1.35922901E-04  1.37459015E-04  2.46195022E-04  2.16316025E-04  3.68260244E-05  6.42318747E-05  1.23180262E-04  1.54775662E-04  1.16918643E-04  5.15199262E-05
      3.43145850E-05  6.48211255E-05  1.72568912E-04  2.35507488E-04  1.73872602E-04  2.35395087E-04  6.83274455E-04  9.10762233E-04  8.67481934E-04  9.00485796E-04  8.53864408E-04  8.74252524E-04  8.51380818E-04  8.61923515E-04  8.44040360E-04  5.95614343E-04  5.99546744E-04  5.82233014E-04  5.88883746E-04  6.03556138E-04
      5.88883746E-04  6.03556138E-04  6.03556138E-04  6.03556138E-04  6.03556138E-04  7.58554142E-04  5.63882991E-04  8.09839225E-04  7.30443857E-04  8.09839225E-04  8.09839225E-04  8.09839225E-04  8.09839225E-04  7.30443857E-04  5.71203519E-04  4.07703246E-04  3.10803244E-04  4.13554556E-04  3.12140564E-04  2.62059900E-04
      1.96420399E-04  2.63623474E-04  1.94884768E-04  1.75597365E-04  1.29888049E-04  1.75821470E-04  1.36149040E-04  1.23937867E-04  1.36149040E-04  1.23937867E-04  1.23937867E-04  1.23937867E-04  1.23937867E-04  1.01225140E-04  8.50512306E-05  1.06404218E-04  9.69628938E-05  1.06404218E-04  1.06404218E-04  1.06404218E-04
      1.06404218E-04  9.69628938E-05  8.53899701E-05  6.22530464E-05  5.49559741E-05  6.26393468E-05  5.51240270E-05  2.91559843E-05  3.25366830E-05  5.12787695E-05  5.61103478E-05  1.10062815E-04  2.34442759E-04  5.19611541E-04       0.00146961       0.00494088       0.00555608       0.00134695  4.37118728E-04  2.14242049E-04
      1.56478656E-04  1.24496303E-04  1.31445523E-04  2.53297837E-04  2.83761109E-04  1.20646035E-04  1.84125897E-04  2.68230455E-04  3.08716165E-04  1.66228662E-04  5.24863693E-05  3.61004799E-05  7.93216142E-05  1.65098789E-04  1.95903482E-04  9.98603149E-05  1.26134202E-04  4.59073241E-04  7.46091407E-04  6.54465170E-04
      7.46444570E-04  6.58123800E-04  6.13276019E-04  5.97951346E-04  6.18552333E-04  6.02245788E-04  6.24071929E-04  6.45037308E-04  6.62411540E-04  6.62411540E-04  6.62411540E-04  6.62411540E-04  6.45037308E-04  6.62411540E-04  6.26435455E-04  6.53792108E-04  6.40736788E-04  6.40736788E-04  6.40736788E-04  6.40736788E-04
      5.75355639E-04  6.40736788E-04  5.75355639E-04  4.55864137E-04  6.06576332E-04  4.55830031E-04  5.25268988E-04  3.35806430E-04  5.21724377E-04  3.36313570E-04  2.52070303E-04  1.73042424E-04  2.49686450E-04  1.72455976E-04  1.28311323E-04  1.40021062E-04  1.35323397E-04  1.35323397E-04  1.35323397E-04  1.35323397E-04
      1.40021062E-04  1.35323397E-04  1.28261042E-04  1.37349072E-04  1.17714571E-04  1.17714571E-04  1.17714571E-04  1.17714571E-04  1.11584721E-04  1.17714571E-04  1.11584721E-04  1.02587308E-04  1.14618205E-04  1.03258666E-04  9.23111048E-05  5.83659593E-05  9.28605231E-05  5.87498397E-05  4.10046710E-05  4.52699240E-05
      6.44342773E-05  5.96164676E-05  6.26151043E-05  7.70940597E-05  1.69277858E-04  5.09783468E-04       0.00224759       0.00258754  9.63074014E-04  3.56661795E-04  2.72334135E-04  2.73136245E-04  1.34366407E-04  1.36517501E-04  3.07274737E-04  3.20786747E-04  2.18578270E-04  4.51885916E-04  5.48437222E-04  5.68747385E-04
      2.71219547E-04  8.88937026E-05  5.47696357E-05  1.05164407E-04  1.93270826E-04  1.86951054E-04  1.00232932E-04  1.31196504E-04  4.11528614E-04  7.30782605E-04  7.17285689E-04  4.18400955E-04  3.70794230E-04  7.16298209E-04  6.87721503E-04  4.21599475E-04  4.92853513E-04  6.78580756E-04  6.49970061E-04  6.22191300E-04
      5.50993368E-04  6.03417788E-04  4.48615645E-04  4.71305505E-04  3.63114680E-04  3.38496369E-04  3.43407879E-04  2.93286433E-04  2.13198930E-04  1.87089651E-04  1.56193704E-04  1.78198937E-04  1.25336305E-04  1.26274425E-04  1.30452201E-04  1.20142829E-04  1.30942828E-04  1.17333979E-04  1.21430795E-04  1.44722491E-04
      1.48780779E-04  1.07351626E-04  6.93725738E-05  1.25421331E-04  8.69468118E-05  4.79551539E-05  4.55026955E-05  8.60695843E-05  5.98486192E-05  4.84177714E-05  6.15265859E-05  1.27909475E-04  3.56684539E-04       0.00128086       0.00130438  7.45555967E-04  3.76064409E-04  3.11551939E-04  3.61235836E-04  1.62938940E-04
      1.60235785E-04  2.87868302E-04  2.87011712E-04  5.62377694E-04       0.00166926       0.00185489       0.00139641  5.39958045E-04  1.97487712E-04  1.42297081E-04  1.85906246E-04  2.70019874E-04  2.12354538E-04  1.30234561E-04  1.48602011E-04  4.20936593E-04  3.35528323E-04  3.41985654E-04  5.39526484E-04  5.30575681E-04
      6.87455585E-04  6.65198029E-04  6.42624290E-04  6.19871359E-04  5.56195823E-04  4.43494940E-04  4.77018941E-04  3.15456629E-04  3.34033701E-04  2.60118398E-04  2.32993649E-04  1.80716299E-04  2.35516733E-04  2.20232019E-04  1.67139660E-04  1.65461578E-04  1.89192188E-04  1.24218081E-04  1.35135126E-04  1.35562867E-04
      1.11648906E-04  1.30242587E-04  1.31339256E-04  1.42397608E-04  1.76585397E-04  1.70152325E-04  1.53912636E-04  1.48518236E-04  1.42923521E-04  1.02193579E-04  1.32349286E-04  1.26213309E-04  6.28214165E-05  7.13107464E-05  1.52984899E-04  1.44741206E-04  9.69190809E-05  7.93727357E-05  1.07361775E-04  2.13540353E-04
      3.13497828E-04  2.47193859E-04  2.44060006E-04  2.95018113E-04  3.53235552E-04  4.38675057E-04  2.61967615E-04  2.61570160E-04  3.30338209E-04  2.76597295E-04       0.00124762       0.00403038       0.00549004       0.00300790  9.89270124E-04  3.76543798E-04  2.79197295E-04  2.13926019E-04  2.57805699E-04  2.03519524E-04
      1.48654165E-04  1.91339396E-04  3.46788687E-04  6.44598591E-04  7.64579756E-04  3.78207711E-04  1.91861323E-04  1.49360810E-04  1.50441381E-04  1.62738743E-04  1.72632939E-04  1.30838105E-04  1.15602753E-04  1.48158425E-04  3.22828469E-04  2.96707055E-04  1.49817795E-04  9.28490316E-05  1.08753665E-04  1.19806227E-04
      9.96319077E-05  5.95191232E-05  6.25816466E-05  1.26093150E-04  2.94285158E-04  5.30585199E-04  4.90337017E-04  5.75486018E-04  5.30385857E-04  2.92299525E-04       0.00222840       0.00636121       0.00846111       0.00398707       0.00118075  6.28778498E-04  4.05180580E-04  2.79393494E-04  2.80984827E-04  2.60337984E-04
      2.34699169E-04  2.19469761E-04  4.43040056E-04  6.97987019E-04  6.70492318E-04  4.52809305E-04  3.69169772E-04  2.69996315E-04  1.63118000E-04  1.49043379E-04  1.32301572E-04  1.34346479E-04  1.17013261E-04  1.83520483E-04  4.26759268E-04  4.21510603E-04  1.72554806E-04  9.12309438E-05  9.20150565E-05  8.23807310E-05
      4.75629499E-05  2.64084938E-05  3.19692592E-05  7.32971021E-05  2.69526517E-04  7.51649805E-04  9.94971873E-04       0.00107825  7.92530924E-04  3.60043518E-04       0.00285750       0.00637156       0.00646265       0.00250004  8.36220614E-04  5.47571905E-04  4.27261688E-04  3.29603885E-04  3.31373489E-04  3.44409652E-04
      3.59098374E-04  3.81528953E-04  5.22334693E-04  6.40307758E-04  5.63622262E-04  5.06735088E-04  4.20132509E-04  3.13399945E-04  2.10667682E-04  1.39433558E-04  1.41135773E-04  1.17155173E-04  1.57218432E-04  2.10656095E-04  4.49827003E-04  3.45199000E-04  1.49435048E-04  8.02027168E-05  7.45513007E-05  6.88457854E-05
      4.44472529E-05  3.20092734E-05  3.61288583E-05  8.69303666E-05  3.72653420E-04       0.00125988       0.00211429       0.00186849       0.00119777  4.72631041E-04       0.00150500       0.00237200       0.00276348  8.64558978E-04  3.85622696E-04  4.88582499E-04  5.67561150E-04  3.79349398E-04  3.47540279E-04  4.37041030E-04
      5.43764384E-04  4.47496744E-04  5.12570765E-04  5.72112916E-04  5.64365763E-04  4.95023895E-04  5.21123689E-04  3.15267847E-04  2.03638914E-04  1.52861785E-04  1.27619648E-04  1.09541913E-04  1.30701234E-04  2.10323646E-04  2.54854699E-04  1.69833650E-04  1.02818009E-04  7.85179909E-05  6.91387452E-05  7.42712754E-05
      5.53101535E-05  4.48253349E-05  5.95042060E-05  1.41609784E-04  4.69312977E-04       0.00137829       0.00256309       0.00222562       0.00144790  6.00853657E-04       0.00232348  7.54505098E-04  9.73858025E-04  4.63135041E-04  3.74584495E-04  6.69763048E-04  8.27057310E-04  6.15198250E-04  5.79396664E-04  8.40119769E-04
      8.32138102E-04  4.58183585E-04  4.15564537E-04  5.27017032E-04  5.72259750E-04  5.45207196E-04  5.41472120E-04  2.68583669E-04  2.32009390E-04  1.58666669E-04  1.06279393E-04  7.91527079E-05  8.38634895E-05  1.93544231E-04  2.90912649E-04  9.85567837E-05  1.10639024E-04  7.84571559E-05  7.47578657E-05  8.33510997E-05
      7.32430031E-05  6.00591042E-05  6.78489109E-05  1.40385714E-04  4.68793764E-04       0.00113361       0.00199354       0.00199560       0.00129174  6.43784327E-04       0.00132428  2.89156392E-04  2.84930026E-04  3.11740912E-04  5.70504519E-04  9.40738972E-04       0.00100405       0.00113126       0.00114419       0.00115777
           0.00112076  6.02769417E-04  4.76674315E-04  6.35272757E-04  7.86240402E-04  6.22008287E-04  5.92785609E-04  3.06348606E-04  2.28583358E-04  1.56717611E-04  9.01390195E-05  6.61600067E-05  6.30558884E-05  9.82667364E-05  1.00671663E-04  1.12634749E-04  1.50400912E-04  1.15538401E-04  9.94841299E-05  1.01200167E-04
      9.46743547E-05  9.54893106E-05  1.21919466E-04  1.90121163E-04  4.19184880E-04  8.03361184E-04       0.00133694       0.00107188  8.12644084E-04  4.98391140E-04  6.73242299E-04  1.95029625E-04  1.66053862E-04  2.16539688E-04  5.96354856E-04  8.39260729E-04       0.00106602       0.00129773       0.00149385       0.00128382
      9.30853291E-04  6.31643028E-04  6.42587560E-04       0.00106576       0.00100836  7.44389018E-04  6.67152534E-04  3.93244491E-04  1.57419785E-04  1.21144859E-04  1.11828463E-04  1.09209333E-04  6.76332780E-05  6.63688685E-05  1.27893754E-04  2.15268698E-04  2.40154880E-04  2.08874945E-04  1.68366673E-04  1.54822937E-04
      1.30050497E-04  1.49114234E-04  2.20769457E-04  2.41156380E-04  3.47243112E-04  5.30611191E-04  7.38592846E-04  7.79338855E-04  4.77972389E-04  3.02224899E-04  2.00249191E-04  1.17889564E-04  1.09830626E-04  1.69852978E-04  5.14117161E-04  4.85247910E-04  5.85328665E-04  8.55091417E-04       0.00110556       0.00110419
      7.74124075E-04  6.97551557E-04  9.63100722E-04       0.00158587       0.00137250       0.00100729  6.73324874E-04  3.11154035E-04  1.49142802E-04  1.40617223E-04  1.56770889E-04  1.68203355E-04  8.43674226E-05  1.04102413E-04  2.35807014E-04  6.52061728E-04  5.60436979E-04  4.11329726E-04  3.54353647E-04  2.75371349E-04
      2.00909925E-04  2.18959942E-04  3.12675172E-04  2.85345547E-04  2.31046740E-04  3.04163521E-04  5.05329967E-04  6.20349709E-04  4.62175246E-04  2.81682400E-04  1.50587949E-04  5.89685898E-05  4.51389410E-05  8.74491840E-05  2.85705289E-04  2.46233095E-04  3.29701259E-04  4.90343005E-04  5.39505916E-04  5.86755948E-04
      7.17311633E-04  7.39948267E-04  9.41384457E-04       0.00165455       0.00161990       0.00101304  5.12935940E-04  2.57074412E-04  1.96097849E-04  2.40558491E-04  2.50531301E-04  2.36242806E-04  1.31382562E-04  1.55811725E-04  3.11542362E-04  9.10236325E-04       0.00103251       0.00103919  6.79594110E-04  4.84466567E-04
      2.77857282E-04  3.07403131E-04  2.63390623E-04  1.94590017E-04  1.95181569E-04  2.31001430E-04  3.67126194E-04  4.72671958E-04  4.67780453E-04  4.43590350E-04  1.23976079E-04  4.36470046E-05  3.05321797E-05  5.48133977E-05  1.82443786E-04  1.89262723E-04  2.56287913E-04  3.82286319E-04  3.78387819E-04  4.74547226E-04
      8.20561567E-04  6.99979029E-04  7.07825831E-04       0.00111096       0.00123926  8.63823139E-04  3.85476963E-04  2.43734402E-04  2.13889444E-04  2.89423187E-04  2.87272183E-04  2.91197339E-04  1.85742312E-04  1.85597740E-04  3.84317854E-04  9.34979819E-04       0.00115421       0.00154116  9.63342006E-04  5.88577481E-04
      2.86085172E-04  2.92994403E-04  2.05334642E-04  1.40837354E-04  1.60259369E-04  1.98526215E-04  3.38507907E-04  4.44950921E-04  5.23217011E-04  5.92788191E-04
    INTERNAL  FACTOR  1.0
      4.47267700E-04  5.24261098E-04  5.55536313E-04  3.34422046E-04  2.29398060E-04  1.61394283E-04  2.33121706E-08  2.86373000E-08  6.21983873E-08  1.10895109E-04  4.66366289E-04       0.00106056  7.51928975E-04  2.20526879E-04  6.90053522E-05  3.56062604E-05  6.02953740E-05  1.01935342E-04  1.01946304E-04  9.81283262E-05
      1.03732683E-04  1.90198087E-04  6.31459241E-09  2.18322760E-09  5.22954578E-09  2.01105885E-08  2.38960050E-08  1.58408518E-08  9.62971666E-09  5.30821217E-09  3.62240385E-09  5.92152170E-09  3.88984411E-05  5.71542174E-05  6.03921626E-05  1.02092546E-04  1.64431705E-04  2.03464197E-04  2.07404824E-04  1.38768075E-04
      4.14903845E-04  5.73646992E-04  6.28222599E-04  3.74463907E-04  2.12976621E-04  1.19608498E-04  4.04548778E-08  4.87276606E-08  2.17108307E-06  1.24806025E-04  5.43339115E-04  9.41192886E-04  5.10990706E-04  1.61370415E-04  5.57613168E-05  3.14721678E-05  5.52483106E-05  1.11504454E-04  1.08184683E-04  9.33241186E-05
      1.27967541E-04  1.75353983E-04  4.68398223E-05  2.71467468E-09  5.80118011E-09  1.80360011E-08  2.04962818E-08  1.45379633E-08  8.84436381E-09  4.62354537E-09  3.49313047E-09  7.91475048E-09  6.14818297E-05  7.01565822E-05  7.52780471E-05  1.39216900E-04  1.47295472E-04  1.55005130E-04  1.29201601E-04  1.09388162E-04
      2.16408551E-04  5.88713574E-04  8.64610417E-04  4.17235419E-04  1.51209082E-04  7.44061985E-05  8.97727741E-08  1.72494252E-07  8.12615455E-05  1.98439213E-04  5.67867932E-04  7.31956460E-04  2.86541411E-04  9.83589498E-05  4.48320835E-05  2.99823087E-05  6.35040336E-05  1.07600701E-04  9.10586547E-05  8.84032919E-05
      1.41955973E-04  2.28514910E-04  3.50885153E-04  9.10749423E-09  6.46587114E-09  1.26965248E-08  2.42893383E-08  1.20454658E-08  7.77268476E-09  7.21019571E-07  2.32519445E-04  5.20123890E-04  6.52272784E-05  1.29949878E-04  1.81437740E-04  2.17944167E-04  1.54876127E-04  1.35322811E-04  1.17112308E-04  1.71393833E-04
      1.76966556E-04  4.99982623E-04  7.36958608E-04  4.56730336E-04  1.82821415E-04  7.16497820E-05  8.95226195E-06  7.50487763E-05  1.91526841E-04  2.82130231E-04  4.48921776E-04  4.97684482E-04  2.72637013E-04  1.01102586E-04  6.42571000E-05  5.99401351E-05  1.11076020E-04  1.18855409E-04  1.03539835E-04  9.96212963E-05
      2.11060498E-04  4.61441170E-04  5.11479984E-04  1.69446126E-04  1.44776561E-04  2.66972598E-05       0.00106306  1.05130871E-08  8.51548135E-09       0.00138942       0.00833650       0.00849771       0.00545964  2.60229733E-04  5.18853896E-04  5.00394157E-04  2.71635372E-04  2.01143795E-04  1.92849937E-04  2.40082712E-04
      1.92714627E-04  3.94428243E-04  6.90204168E-04  5.60402597E-04  2.53814880E-04  9.67623507E-05  7.90295949E-05  1.69596402E-04  2.68873237E-04  2.94420361E-04  3.06426852E-04  2.85046255E-04  2.55339293E-04  1.86644947E-04  1.11873287E-04  1.50988522E-04  2.22661292E-04  2.05536330E-04  1.70299590E-04  1.94473259E-04
      5.05301186E-04  8.53465551E-04  4.66966406E-04  9.51456211E-04  5.86587305E-04  1.38322675E-04  4.11946663E-04  9.14232124E-06  3.68293314E-05       0.00458002       0.00783931       0.00528407       0.00450951  4.27075919E-04  7.11173311E-04       0.00115466  6.23579195E-04  4.46188793E-04  3.18420382E-04  3.37922458E-04
      1.67759314E-04  3.60658007E-04  7.09237836E-04  7.90696436E-04  4.60572448E-04  1.98796929E-04  1.76688576E-04  2.91858424E-04  2.69638273E-04  2.12583980E-04  1.76786950E-04  1.64723176E-04  2.17322843E-04  2.14978603E-04  1.70616779E-04  2.73140546E-04  3.53908949E-04  2.75226923E-04  2.53843844E-04  3.46285387E-04
      8.23567002E-04       0.00104591  5.22000661E-04       0.00239312  4.71009773E-04  2.80812673E-04  1.20506233E-05  3.53618106E-05  1.41735045E-04  3.27235232E-04       0.00852772       0.00428904       0.00235101  6.88972021E-04       0.00100819       0.00188199       0.00116654  7.88197571E-04  6.37168677E-04  4.93543605E-04
      2.07639638E-04  3.76323502E-04  7.41814903E-04       0.00105786  6.78645786E-04  4.11961489E-04  3.12233688E-04  3.46820671E-04  2.25136637E-04  1.22963234E-04  9.38838017E-05  7.80084940E-05  1.26680967E-04  1.74711337E-04  2.17744462E-04  3.52163933E-04  3.97474542E-04  3.68565632E-04  3.45754463E-04  3.86336805E-04
      6.92442760E-04  6.06947911E-04       0.00113040       0.00213102  2.30946580E-04  5.84342694E-09  5.43671586E-09  1.31807951E-08  3.67189521E-04  7.32224882E-04       0.00250867       0.00481219       0.00314454  5.79107306E-04  9.97839618E-04       0.00160607       0.00132701  9.81953824E-04       0.00107238  9.03575851E-04
      2.17849904E-04  3.48676145E-04  6.97922889E-04       0.00109659  8.17921828E-04  6.10509555E-04  5.14945890E-04  5.76285708E-04  2.02115566E-04  8.91707144E-05  5.89191804E-05  5.95111724E-05  9.21683009E-05  1.77395255E-04  2.41075238E-04  3.33703782E-04  3.61988262E-04  4.03765280E-04  2.65058868E-04  2.22857870E-04
      2.19892737E-04  1.51952007E-04  3.15419899E-04  6.43795148E-04  8.10673544E-09  3.93428138E-09  4.01654411E-09  1.05629537E-08  7.72921199E-04  5.04854252E-04       0.00140825       0.00180261       0.00123087  6.29849145E-04  6.88798368E-04  7.99049951E-04       0.00105748       0.00112728       0.00103314  7.05025310E-04
      1.43076710E-04  2.55842651E-04  6.20691960E-04  8.33012628E-04  6.77288829E-04  3.94802896E-04  4.38038974E-04  4.03256617E-04  1.42443209E-04  8.23544617E-05  6.30661618E-05  6.29518582E-05  8.63439971E-05  2.01210066E-04  2.33424669E-04  2.67401706E-04  3.27790588E-04  3.03386533E-04  1.47353025E-04  9.09006916E-05
      4.36781982E-05  1.88556390E-05  1.10365673E-08  3.92744970E-05  2.10372472E-09  1.60931794E-09  1.99075596E-09  4.20287423E-04  9.09783663E-04  4.23979333E-04       0.00123661  9.57624168E-04  8.73245274E-04  6.73015372E-04  3.89912157E-04  3.17620495E-04  6.12136413E-04  9.07044903E-04  8.29466609E-04  3.74799452E-04
      4.93724081E-05  1.07251095E-04  3.02393624E-04  4.62285286E-04  2.91928468E-04  2.00743527E-04  1.55432817E-04  1.37378185E-04  1.06950774E-04  1.13754881E-04  7.76180985E-05  8.58421132E-05  7.05791541E-05  1.13541870E-04  1.84377766E-04  1.98166930E-04  2.15013762E-04  2.11050041E-04  9.38955385E-05  3.76495156E-05
      1.08471272E-05  3.03950371E-08  9.54533655E-09  3.99378339E-09  1.25915707E-09  7.67111085E-10  6.64148936E-10  7.41258884E-05  2.25668894E-04  2.62619713E-04  2.77392461E-04  4.01590545E-04  6.21280542E-04  6.26144567E-04  1.96607418E-04  1.46407746E-04  2.67019759E-04  4.18117157E-04  4.37160683E-04  2.43232150E-04
      2.57650867E-05  6.04353048E-05  1.61322715E-04  2.27209160E-04  1.27883012E-04  6.23594650E-05  3.53246475E-05  3.51037435E-05  7.63189899E-05  1.41957479E-04  9.55949020E-05  9.03733562E-05  9.52297400E-06  3.75681122E-05  1.54664112E-04  8.03463985E-08  2.57686692E-05  1.44760365E-04  1.57081147E-04  2.36294115E-05
      2.29845615E-05  1.44987002E-04  1.18289881E-04  2.12702401E-05  1.87106135E-05  1.20569176E-04  1.44945662E-04  1.95248048E-05  2.19149371E-05  1.46648114E-04  9.97058385E-05  1.92098205E-05  1.35281407E-05  5.69109288E-05  4.23651397E-05  5.34836600E-05  3.76127243E-05  4.17359991E-05  2.98012132E-05  2.96406525E-05
      2.09653371E-05  1.16295210E-05  2.83648152E-06  1.39098489E-05  1.35167529E-08  1.30690678E-08  1.31598203E-08  1.00013988E-08  1.33620595E-08  9.96226735E-09  4.16959376E-09  1.48902137E-09  5.92704175E-10  3.61113423E-10  1.89406756E-05  8.69489295E-05  2.54178344E-04  1.21601107E-04  1.74672279E-04       0.00107575
      4.94112574E-04  1.59351230E-04  1.36595866E-04  1.74800741E-04  1.89960427E-04  2.52565263E-04  1.34641870E-04  2.73826035E-05  4.99242767E-05  1.16241365E-04  1.42358423E-04  9.11271044E-05  3.00162478E-05  1.42561697E-05  1.27836547E-05  3.67014017E-05  8.37150923E-05  6.64388249E-05  8.06415529E-06  6.39892851E-08
      5.40170326E-08  4.53655838E-08  6.30022494E-08  5.33853660E-08  4.35342517E-08  3.53467196E-08  3.92845091E-08  2.99147800E-08  2.94704127E-08  2.68929796E-08  2.56682366E-08  2.32387796E-08  2.45931705E-08  2.22351394E-08  2.29325915E-08  2.31418796E-08  1.87549356E-08  1.89828677E-08  1.91999091E-08  1.82681872E-08
      6.56324579E-06  6.82016435E-06  1.80173460E-08  2.05210727E-08  3.07846422E-05  2.31374676E-05  5.23690096E-06  2.65433522E-05  3.80001791E-06  1.28175963E-08  2.29288583E-08  1.05234673E-08  1.06656412E-08  1.57506300E-08  1.31947241E-08  1.71340774E-08  1.34318695E-08  6.62617408E-09  2.34499751E-09  8.61707108E-10
      4.98652792E-10  1.70611408E-05  9.07198876E-05  3.95636083E-04       0.00105124       0.00335824       0.00142582  4.91741918E-04  1.81484009E-04  1.55409005E-04  1.64038049E-04  1.39888354E-04  2.23778566E-04  1.93174655E-04  3.54352649E-05  5.79632176E-05  1.18351478E-04  1.52415888E-04  8.34046895E-05  2.50230317E-05
      1.26276314E-05  1.02539490E-05  2.29951621E-05  6.83167064E-05  2.97744034E-05  4.31586781E-08  6.71511494E-08  6.75268259E-08  4.86112229E-08  6.76834666E-08  4.83700982E-08  3.05161119E-08  2.40783048E-08  3.01657365E-08  2.38548641E-08  2.15680513E-08  2.15320310E-08  2.14103660E-08  2.13631917E-08  2.15816964E-08