# File generated by Flopy version 3.9.3 on 10/06/2025 at 15:08:33.
BEGIN options
  SAVE_FLOWS
END options

BEGIN dimensions
  MAXBOUND  520
END dimensions

BEGIN period  1
  1 1211 3.00000000E-01
  1 1171 3.00000000E-01
  1 1131 3.00000000E-01
  1 1091 3.00000000E-01
  1 1051 3.00000000E-01
  1 1011 3.00000000E-01
  1 971 3.00000000E-01
  1 931 3.00000000E-01
  1 891 3.00000000E-01
  1 851 3.00000000E-01
  1 784 3.00000000E-01
  1 717 3.00000000E-01
  1 626 3.00000000E-01
  1 535 3.00000000E-01
  1 468 3.00000000E-01
  1 401 3.00000000E-01
  1 361 3.00000000E-01
  1 321 3.00000000E-01
  1 281 3.00000000E-01
  1 241 3.00000000E-01
  1 201 3.00000000E-01
  1 161 3.00000000E-01
  1 121 3.00000000E-01
  1 81 3.00000000E-01
  1 41 3.00000000E-01
  1 1 3.00000000E-01
  2 1211 3.00000000E-01
  2 1171 3.00000000E-01
  2 1131 3.00000000E-01
  2 1091 3.00000000E-01
  2 1051 3.00000000E-01
  2 1011 3.00000000E-01
  2 971 3.00000000E-01
  2 931 3.00000000E-01
  2 891 3.00000000E-01
  2 851 3.00000000E-01
  2 784 3.00000000E-01
  2 717 3.00000000E-01
  2 626 3.00000000E-01
  2 535 3.00000000E-01
  2 468 3.00000000E-01
  2 401 3.00000000E-01
  2 361 3.00000000E-01
  2 321 3.00000000E-01
  2 281 3.00000000E-01
  2 241 3.00000000E-01
  2 201 3.00000000E-01
  2 161 3.00000000E-01
  2 121 3.00000000E-01
  2 81 3.00000000E-01
  2 41 3.00000000E-01
  2 1 3.00000000E-01
  3 1211 3.00000000E-01
  3 1171 3.00000000E-01
  3 1131 3.00000000E-01
  3 1091 3.00000000E-01
  3 1051 3.00000000E-01
  3 1011 3.00000000E-01
  3 971 3.00000000E-01
  3 931 3.00000000E-01
  3 891 3.00000000E-01
  3 851 3.00000000E-01
  3 784 3.00000000E-01
  3 717 3.00000000E-01
  3 626 3.00000000E-01
  3 535 3.00000000E-01
  3 468 3.00000000E-01
  3 401 3.00000000E-01
  3 361 3.00000000E-01
  3 321 3.00000000E-01
  3 281 3.00000000E-01
  3 241 3.00000000E-01
  3 201 3.00000000E-01
  3 161 3.00000000E-01
  3 121 3.00000000E-01
  3 81 3.00000000E-01
  3 41 3.00000000E-01
  3 1 3.00000000E-01
  4 1211 3.00000000E-01
  4 1171 3.00000000E-01
  4 1131 3.00000000E-01
  4 1091 3.00000000E-01
  4 1051 3.00000000E-01
  4 1011 3.00000000E-01
  4 971 3.00000000E-01
  4 931 3.00000000E-01
  4 891 3.00000000E-01
  4 851 3.00000000E-01
  4 784 3.00000000E-01
  4 717 3.00000000E-01
  4 626 3.00000000E-01
  4 535 3.00000000E-01
  4 468 3.00000000E-01
  4 401 3.00000000E-01
  4 361 3.00000000E-01
  4 321 3.00000000E-01
  4 281 3.00000000E-01
  4 241 3.00000000E-01
  4 201 3.00000000E-01
  4 161 3.00000000E-01
  4 121 3.00000000E-01
  4 81 3.00000000E-01
  4 41 3.00000000E-01
  4 1 3.00000000E-01
  5 1211 3.00000000E-01
  5 1171 3.00000000E-01
  5 1131 3.00000000E-01
  5 1091 3.00000000E-01
  5 1051 3.00000000E-01
  5 1011 3.00000000E-01
  5 971 3.00000000E-01
  5 931 3.00000000E-01
  5 891 3.00000000E-01
  5 851 3.00000000E-01
  5 784 3.00000000E-01
  5 717 3.00000000E-01
  5 626 3.00000000E-01
  5 535 3.00000000E-01
  5 468 3.00000000E-01
  5 401 3.00000000E-01
  5 361 3.00000000E-01
  5 321 3.00000000E-01
  5 281 3.00000000E-01
  5 241 3.00000000E-01
  5 201 3.00000000E-01
  5 161 3.00000000E-01
  5 121 3.00000000E-01
  5 81 3.00000000E-01
  5 41 3.00000000E-01
  5 1 3.00000000E-01
  6 1211 3.00000000E-01
  6 1171 3.00000000E-01
  6 1131 3.00000000E-01
  6 1091 3.00000000E-01
  6 1051 3.00000000E-01
  6 1011 3.00000000E-01
  6 971 3.00000000E-01
  6 931 3.00000000E-01
  6 891 3.00000000E-01
  6 851 3.00000000E-01
  6 784 3.00000000E-01
  6 717 3.00000000E-01
  6 626 3.00000000E-01
  6 535 3.00000000E-01
  6 468 3.00000000E-01
  6 401 3.00000000E-01
  6 361 3.00000000E-01
  6 321 3.00000000E-01
  6 281 3.00000000E-01
  6 241 3.00000000E-01
  6 201 3.00000000E-01
  6 161 3.00000000E-01
  6 121 3.00000000E-01
  6 81 3.00000000E-01
  6 41 3.00000000E-01
  6 1 3.00000000E-01
  7 1211 3.00000000E-01
  7 1171 3.00000000E-01
  7 1131 3.00000000E-01
  7 1091 3.00000000E-01
  7 1051 3.00000000E-01
  7 1011 3.00000000E-01
  7 971 3.00000000E-01
  7 931 3.00000000E-01
  7 891 3.00000000E-01
  7 851 3.00000000E-01
  7 784 3.00000000E-01
  7 717 3.00000000E-01
  7 626 3.00000000E-01
  7 535 3.00000000E-01
  7 468 3.00000000E-01
  7 401 3.00000000E-01
  7 361 3.00000000E-01
  7 321 3.00000000E-01
  7 281 3.00000000E-01
  7 241 3.00000000E-01
  7 201 3.00000000E-01
  7 161 3.00000000E-01
  7 121 3.00000000E-01
  7 81 3.00000000E-01
  7 41 3.00000000E-01
  7 1 3.00000000E-01
  8 1211 3.00000000E-01
  8 1171 3.00000000E-01
  8 1131 3.00000000E-01
  8 1091 3.00000000E-01
  8 1051 3.00000000E-01
  8 1011 3.00000000E-01
  8 971 3.00000000E-01
  8 931 3.00000000E-01
  8 891 3.00000000E-01
  8 851 3.00000000E-01
  8 784 3.00000000E-01
  8 717 3.00000000E-01
  8 626 3.00000000E-01
  8 535 3.00000000E-01
  8 468 3.00000000E-01
  8 401 3.00000000E-01
  8 361 3.00000000E-01
  8 321 3.00000000E-01
  8 281 3.00000000E-01
  8 241 3.00000000E-01
  8 201 3.00000000E-01
  8 161 3.00000000E-01
  8 121 3.00000000E-01
  8 81 3.00000000E-01
  8 41 3.00000000E-01
  8 1 3.00000000E-01
  9 1211 3.00000000E-01
  9 1171 3.00000000E-01
  9 1131 3.00000000E-01
  9 1091 3.00000000E-01
  9 1051 3.00000000E-01
  9 1011 3.00000000E-01
  9 971 3.00000000E-01
  9 931 3.00000000E-01
  9 891 3.00000000E-01
  9 851 3.00000000E-01
  9 784 3.00000000E-01
  9 717 3.00000000E-01
  9 626 3.00000000E-01
  9 535 3.00000000E-01
  9 468 3.00000000E-01
  9 401 3.00000000E-01
  9 361 3.00000000E-01
  9 321 3.00000000E-01
  9 281 3.00000000E-01
  9 241 3.00000000E-01
  9 201 3.00000000E-01
  9 161 3.00000000E-01
  9 121 3.00000000E-01
  9 81 3.00000000E-01
  9 41 3.00000000E-01
  9 1 3.00000000E-01
  10 1211 3.00000000E-01
  10 1171 3.00000000E-01
  10 1131 3.00000000E-01
  10 1091 3.00000000E-01
  10 1051 3.00000000E-01
  10 1011 3.00000000E-01
  10 971 3.00000000E-01
  10 931 3.00000000E-01
  10 891 3.00000000E-01
  10 851 3.00000000E-01
  10 784 3.00000000E-01
  10 717 3.00000000E-01
  10 626 3.00000000E-01
  10 535 3.00000000E-01
  10 468 3.00000000E-01
  10 401 3.00000000E-01
  10 361 3.00000000E-01
  10 321 3.00000000E-01
  10 281 3.00000000E-01
  10 241 3.00000000E-01
  10 201 3.00000000E-01
  10 161 3.00000000E-01
  10 121 3.00000000E-01
  10 81 3.00000000E-01
  10 41 3.00000000E-01
  10 1 3.00000000E-01
  1 1250 0.00000000E+00
  1 1210 0.00000000E+00
  1 1170 0.00000000E+00
  1 1130 0.00000000E+00
  1 1090 0.00000000E+00
  1 1050 0.00000000E+00
  1 1010 0.00000000E+00
  1 970 0.00000000E+00
  1 930 0.00000000E+00
  1 890 0.00000000E+00
  1 850 0.00000000E+00
  1 783 0.00000000E+00
  1 716 0.00000000E+00
  1 625 0.00000000E+00
  1 534 0.00000000E+00
  1 467 0.00000000E+00
  1 400 0.00000000E+00
  1 360 0.00000000E+00
  1 320 0.00000000E+00
  1 280 0.00000000E+00
  1 240 0.00000000E+00
  1 200 0.00000000E+00
  1 160 0.00000000E+00
  1 120 0.00000000E+00
  1 80 0.00000000E+00
  1 40 0.00000000E+00
  2 1250 0.00000000E+00
  2 1210 0.00000000E+00
  2 1170 0.00000000E+00
  2 1130 0.00000000E+00
  2 1090 0.00000000E+00
  2 1050 0.00000000E+00
  2 1010 0.00000000E+00
  2 970 0.00000000E+00
  2 930 0.00000000E+00
  2 890 0.00000000E+00
  2 850 0.00000000E+00
  2 783 0.00000000E+00
  2 716 0.00000000E+00
  2 625 0.00000000E+00
  2 534 0.00000000E+00
  2 467 0.00000000E+00
  2 400 0.00000000E+00
  2 360 0.00000000E+00
  2 320 0.00000000E+00
  2 280 0.00000000E+00
  2 240 0.00000000E+00
  2 200 0.00000000E+00
  2 160 0.00000000E+00
  2 120 0.00000000E+00
  2 80 0.00000000E+00
  2 40 0.00000000E+00
  3 1250 0.00000000E+00
  3 1210 0.00000000E+00
  3 1170 0.00000000E+00
  3 1130 0.00000000E+00
  3 1090 0.00000000E+00
  3 1050 0.00000000E+00
  3 1010 0.00000000E+00
  3 970 0.00000000E+00
  3 930 0.00000000E+00
  3 890 0.00000000E+00
  3 850 0.00000000E+00
  3 783 0.00000000E+00
  3 716 0.00000000E+00
  3 625 0.00000000E+00
  3 534 0.00000000E+00
  3 467 0.00000000E+00
  3 400 0.00000000E+00
  3 360 0.00000000E+00
  3 320 0.00000000E+00
  3 280 0.00000000E+00
  3 240 0.00000000E+00
  3 200 0.00000000E+00
  3 160 0.00000000E+00
  3 120 0.00000000E+00
  3 80 0.00000000E+00
  3 40 0.00000000E+00
  4 1250 0.00000000E+00
  4 1210 0.00000000E+00
  4 1170 0.00000000E+00
  4 1130 0.00000000E+00
  4 1090 0.00000000E+00
  4 1050 0.00000000E+00
  4 1010 0.00000000E+00
  4 970 0.00000000E+00
  4 930 0.00000000E+00
  4 890 0.00000000E+00
  4 850 0.00000000E+00
  4 783 0.00000000E+00
  4 716 0.00000000E+00
  4 625 0.00000000E+00
  4 534 0.00000000E+00
  4 467 0.00000000E+00
  4 400 0.00000000E+00
  4 360 0.00000000E+00
  4 320 0.00000000E+00
  4 280 0.00000000E+00
  4 240 0.00000000E+00
  4 200 0.00000000E+00
  4 160 0.00000000E+00
  4 120 0.00000000E+00
  4 80 0.00000000E+00
  4 40 0.00000000E+00
  5 1250 0.00000000E+00
  5 1210 0.00000000E+00
  5 1170 0.00000000E+00
  5 1130 0.00000000E+00
  5 1090 0.00000000E+00
  5 1050 0.00000000E+00
  5 1010 0.00000000E+00
  5 970 0.00000000E+00
  5 930 0.00000000E+00
  5 890 0.00000000E+00
  5 850 0.00000000E+00
  5 783 0.00000000E+00
  5 716 0.00000000E+00
  5 625 0.00000000E+00
  5 534 0.00000000E+00
  5 467 0.00000000E+00
  5 400 0.00000000E+00
  5 360 0.00000000E+00
  5 320 0.00000000E+00
  5 280 0.00000000E+00
  5 240 0.00000000E+00
  5 200 0.00000000E+00
  5 160 0.00000000E+00
  5 120 0.00000000E+00
  5 80 0.00000000E+00
  5 40 0.00000000E+00
  6 1250 0.00000000E+00
  6 1210 0.00000000E+00
  6 1170 0.00000000E+00
  6 1130 0.00000000E+00
  6 1090 0.00000000E+00
  6 1050 0.00000000E+00
  6 1010 0.00000000E+00
  6 970 0.00000000E+00
  6 930 0.00000000E+00
  6 890 0.00000000E+00
  6 850 0.00000000E+00
  6 783 0.00000000E+00
  6 716 0.00000000E+00
  6 625 0.00000000E+00
  6 534 0.00000000E+00
  6 467 0.00000000E+00
  6 400 0.00000000E+00
  6 360 0.00000000E+00
  6 320 0.00000000E+00
  6 280 0.00000000E+00
  6 240 0.00000000E+00
  6 200 0.00000000E+00
  6 160 0.00000000E+00
  6 120 0.00000000E+00
  6 80 0.00000000E+00
  6 40 0.00000000E+00
  7 1250 0.00000000E+00
  7 1210 0.00000000E+00
  7 1170 0.00000000E+00
  7 1130 0.00000000E+00
  7 1090 0.00000000E+00
  7 1050 0.00000000E+00
  7 1010 0.00000000E+00
  7 970 0.00000000E+00
  7 930 0.00000000E+00
  7 890 0.00000000E+00
  7 850 0.00000000E+00
  7 783 0.00000000E+00
  7 716 0.00000000E+00
  7 625 0.00000000E+00
  7 534 0.00000000E+00
  7 467 0.00000000E+00
  7 400 0.00000000E+00
  7 360 0.00000000E+00
  7 320 0.00000000E+00
  7 280 0.00000000E+00
  7 240 0.00000000E+00
  7 200 0.00000000E+00
  7 160 0.00000000E+00
  7 120 0.00000000E+00
  7 80 0.00000000E+00
  7 40 0.00000000E+00
  8 1250 0.00000000E+00
  8 1210 0.00000000E+00
  8 1170 0.00000000E+00
  8 1130 0.00000000E+00
  8 1090 0.00000000E+00
  8 1050 0.00000000E+00
  8 1010 0.00000000E+00
  8 970 0.00000000E+00
  8 930 0.00000000E+00
  8 890 0.00000000E+00
  8 850 0.00000000E+00
  8 783 0.00000000E+00
  8 716 0.00000000E+00
  8 625 0.00000000E+00
  8 534 0.00000000E+00
  8 467 0.00000000E+00
  8 400 0.00000000E+00
  8 360 0.00000000E+00
  8 320 0.00000000E+00
  8 280 0.00000000E+00
  8 240 0.00000000E+00
  8 200 0.00000000E+00
  8 160 0.00000000E+00
  8 120 0.00000000E+00
  8 80 0.00000000E+00
  8 40 0.00000000E+00
  9 1250 0.00000000E+00
  9 1210 0.00000000E+00
  9 1170 0.00000000E+00
  9 1130 0.00000000E+00
  9 1090 0.00000000E+00
  9 1050 0.00000000E+00
  9 1010 0.00000000E+00
  9 970 0.00000000E+00
  9 930 0.00000000E+00
  9 890 0.00000000E+00
  9 850 0.00000000E+00
  9 783 0.00000000E+00
  9 716 0.00000000E+00
  9 625 0.00000000E+00
  9 534 0.00000000E+00
  9 467 0.00000000E+00
  9 400 0.00000000E+00
  9 360 0.00000000E+00
  9 320 0.00000000E+00
  9 280 0.00000000E+00
  9 240 0.00000000E+00
  9 200 0.00000000E+00
  9 160 0.00000000E+00
  9 120 0.00000000E+00
  9 80 0.00000000E+00
  9 40 0.00000000E+00
  10 1250 0.00000000E+00
  10 1210 0.00000000E+00
  10 1170 0.00000000E+00
  10 1130 0.00000000E+00
  10 1090 0.00000000E+00
  10 1050 0.00000000E+00
  10 1010 0.00000000E+00
  10 970 0.00000000E+00
  10 930 0.00000000E+00
  10 890 0.00000000E+00
  10 850 0.00000000E+00
  10 783 0.00000000E+00
  10 716 0.00000000E+00
  10 625 0.00000000E+00
  10 534 0.00000000E+00
  10 467 0.00000000E+00
  10 400 0.00000000E+00
  10 360 0.00000000E+00
  10 320 0.00000000E+00
  10 280 0.00000000E+00
  10 240 0.00000000E+00
  10 200 0.00000000E+00
  10 160 0.00000000E+00
  10 120 0.00000000E+00
  10 80 0.00000000E+00
  10 40 0.00000000E+00
END period  1

