# File generated by Flopy version 3.9.3 on 10/06/2025 at 15:08:33.
BEGIN options
END options

BEGIN griddata
  strt
    CONSTANT       0.15000000
END griddata

