# File generated by Flopy version 3.9.2 on 06/10/2025 at 11:23:06.
BEGIN options
  COMPLEXITY  simple
END options

