# File generated by Flopy version 3.8.2 on 01/28/2025 at 14:56:36.
BEGIN options
  SAVE_FLOWS
  SAVE_SPECIFIC_DISCHARGE
  SAVE_SATURATION
END options

BEGIN griddata
  icelltype
    CONSTANT  0
  k  LAYERED
    INTERNAL  FACTOR  1.0
      2.37868826E-06  2.23873048E-06  1.15057263E-06  9.61505208E-07  6.42864988E-07  8.97786686E-07  1.16294940E-06  1.60826451E-06  2.14244994E-06  1.90168075E-06  8.60044101E-07  7.85860049E-07  8.91667509E-07  1.13766412E-06  1.70753800E-06  2.29982512E-06  8.23524632E-07  2.12350393E-07  1.23325941E-07  9.23600464E-08  9.64062323E-08  7.90100233E-08  2.86035505E-08  3.38770665E-08  6.90532755E-08  8.63511905E-08  1.74483950E-07  2.69425981E-07  2.66578207E-07  8.66496931E-06  4.43054058E-06  3.53002396E-07  4.04253852E-07  3.77746468E-07  3.88272045E-07  4.39328486E-07  5.35630901E-07  6.56736144E-07  1.00241182E-06  1.72017950E-06  2.54990886E-06  2.86557312E-06  3.33921183E-06  2.04273549E-06  2.75881428E-06  2.53921691E-06  2.36688663E-06  2.25759875E-06  2.08198516E-06  1.51376174E-06  1.00277069E-06  7.12702426E-07  7.12702426E-07  7.12702426E-07  7.12702426E-07  7.12702426E-07  7.12702426E-07  7.12702426E-07  1.25491748E-06  1.49941852E-06  1.38939459E-06  5.92762923E-05  5.90879170E-05  4.86458785E-05  4.11589948E-05  2.87940282E-05  2.51800050E-05  1.58365226E-05  8.49680176E-06  2.74128348E-06  9.84328865E-07  8.09636184E-07  7.12702426E-07  7.12702426E-07  7.12702426E-07  7.12702426E-07  7.12702426E-07  7.12702426E-07  7.12702426E-07  7.12702426E-07  7.12702426E-07  7.12702426E-07  7.12702426E-07  7.12702426E-07  7.12702426E-07  9.10354191E-06  1.31924967E-05  2.09854136E-07  2.78183984E-08  5.83352589E-10  3.50637191E-10  1.19695623E-10  1.86388913E-10  1.87968487E-10  3.03705315E-10  6.65414807E-10  3.05823106E-08  1.93472050E-07  3.54006495E-05  3.17053454E-05  2.69398471E-05  2.26215432E-05  1.72006807E-05  1.33426689E-05  1.03148185E-05  8.26856080E-06  9.58230760E-06  1.53203063E-05  2.17883056E-05  3.39354766E-05  4.63583192E-05  5.96104551E-05  7.08703897E-05  1.28230888E-06  1.62665557E-06  1.47276029E-04  1.70217418E-04  1.96644525E-04  2.22956118E-04  2.12055428E-05  2.73568493E-05  2.45027727E-04  2.21033744E-04  1.60688072E-04  3.09178030E-06  7.12702426E-07  7.12702426E-07  7.12702426E-07  7.12702426E-07  7.12702426E-07  7.12702426E-07  7.12702426E-07  7.12702426E-07  7.12702426E-07  7.12702426E-07  7.12702426E-07  7.12702426E-07  7.12702426E-07  7.12702426E-07  7.12702426E-07  7.12702426E-07  7.12702426E-07  7.12702426E-07  6.80239905E-08  7.37836229E-08  3.33842367E-08  2.13940585E-08  4.91731057E-08  9.87471293E-08  1.27915199E-07  1.65634402E-07  1.10299356E-07  6.01172808E-08  1.33527957E-07  2.23046956E-07  3.04934915E-07  2.85472958E-07  3.98159102E-07  4.37122883E-07  8.81063732E-07  1.43247929E-06  7.98710744E-06  7.96603584E-06  5.84450150E-06  5.04528412E-06  4.51144297E-06  4.09681908E-06  3.48374651E-06
      2.58130313E-06  2.35203225E-06  2.51290487E-06  2.72211808E-06  1.51516516E-06  1.46354228E-06  2.04837953E-06  1.75407869E-06  2.92675144E-06  2.71400074E-06  1.23583754E-06  1.06421067E-06  1.31942640E-06  1.39368480E-06  1.70182006E-06  1.74635745E-06  1.49240200E-06  1.67419264E-07  1.82910243E-07  1.77453460E-07  8.68191085E-08  9.86791732E-08  7.73776629E-08  1.18808942E-07  1.23532881E-07  1.81935421E-07  2.78923506E-07  4.17007066E-07  3.81374174E-07  3.12774365E-07  3.90524335E-07  3.98352375E-07  4.80033507E-07  5.92466219E-07  6.51191589E-07  6.78005944E-07  8.85256589E-07  1.10273806E-06  1.46959352E-06  2.07797037E-06  2.64112050E-06  3.27825433E-06  3.79145515E-06  3.31159466E-06  2.75809952E-06  2.38651793E-06  6.02953649E-06  2.28227472E-06  2.35150291E-06  1.64987702E-06  1.21749944E-06  7.12702426E-07  7.12702426E-07  7.12702426E-07  7.12702426E-07  7.12702426E-07  7.12702426E-07  7.12702426E-07  1.67287517E-06  2.22817117E-06  1.29309218E-05  7.50844960E-05  6.55304223E-05  6.08649909E-05  4.64369237E-05  3.09248986E-05  2.33761499E-05  8.44372685E-06  2.71015350E-06  9.17457438E-07  7.24777490E-07  5.78301847E-07  7.12702426E-07  7.12702426E-07  7.12702426E-07  7.12702426E-07  7.12702426E-07  7.12702426E-07  7.12702426E-07  7.12702426E-07  7.12702426E-07  7.12702426E-07  7.12702426E-07  7.12702426E-07  7.12702426E-07  7.63995803E-06  1.16848499E-05  1.76250157E-07  1.01034541E-09  8.87660625E-10  3.93661815E-10  2.67487978E-10  2.09442106E-10  1.83459526E-10  1.79313306E-10  4.25753297E-10  1.42233776E-09  2.48715493E-07  5.27839340E-05  4.54927610E-05  7.12702426E-07  2.76428109E-05  2.24524389E-05  1.73557657E-05  1.40034328E-05  1.34577671E-05  1.62976439E-05  2.19656684E-05  3.25468073E-05  5.02385859E-05  6.11942673E-05  6.35548571E-05  7.12702426E-07  7.12702426E-07  1.05484833E-04  1.23355464E-04  1.51081614E-04  1.72853355E-04  9.77286064E-06  2.55146316E-06  2.75385411E-05  2.65801658E-04  2.16589228E-04  1.57308284E-04  3.16211448E-06  7.12702426E-07  7.12702426E-07  7.12702426E-07  7.12702426E-07  7.12702426E-07  7.12702426E-07  7.12702426E-07  7.12702426E-07  7.12702426E-07  7.12702426E-07  7.12702426E-07  7.12702426E-07  7.12702426E-07  7.12702426E-07  7.12702426E-07  7.12702426E-07  7.12702426E-07  1.45890247E-08  6.93492175E-08  4.81548546E-08  6.45201315E-08  1.08779054E-07  1.25334084E-07  1.32496905E-07  2.05145176E-07  3.69478595E-07  2.66990342E-07  1.98775007E-07  2.40141081E-07  2.42869843E-07  2.89531400E-07  2.35073364E-07  4.59595164E-07  7.97189807E-07  8.75829419E-07  1.85579454E-06  6.35325312E-06  6.45172979E-06  4.89488044E-06  7.12702426E-07  7.12702426E-07  7.12702426E-07  7.12702426E-07
      2.38290989E-06  2.33386050E-06  2.36837618E-06  2.62692636E-06  2.87524218E-06  2.82290634E-06  2.56123912E-06  2.20017776E-06  2.14204303E-06  1.95900731E-06  1.64367166E-06  1.43797574E-06  1.49302480E-06  1.59332497E-06  1.48153852E-06  1.31115587E-06  9.53950946E-07  9.43069222E-07  9.70236126E-07  4.46284160E-07  2.06662123E-07  1.83515130E-07  1.38244053E-07  1.59604061E-07  2.03277251E-07  3.21036642E-07  3.86377912E-07  4.63715041E-07  4.62880803E-07  5.48188885E-07  5.57912762E-07  6.48349325E-07  7.68530531E-07  8.12920373E-07  8.93832775E-07  9.89769218E-07  1.27544539E-06  1.37967623E-06  1.63979077E-06  2.02274485E-06  2.57013807E-06  3.12339563E-06  3.77293833E-06  3.25441273E-06  2.76533749E-07  2.33521132E-07  1.83739931E-06  1.93673958E-06  2.02321574E-06  1.52056812E-06  1.35082331E-06  7.12702426E-07  7.12702426E-07  7.12702426E-07  7.12702426E-07  7.12702426E-07  7.12702426E-07  7.12702426E-07  7.12702426E-07  9.27420247E-05  8.32609095E-05  8.19491880E-05  6.54827370E-05  5.64608755E-05  4.26105907E-05  3.16004592E-05  1.54549075E-05  6.04520692E-06  2.19261515E-06  6.90561567E-07  5.18471085E-07  7.12702426E-07  7.12702426E-07  7.12702426E-07  7.12702426E-07  7.12702426E-07  7.12702426E-07  7.12702426E-07  7.12702426E-07  7.12702426E-07  7.12702426E-07  7.12702426E-07  7.12702426E-07  7.12702426E-07  7.12702426E-07  7.12702426E-07  1.16936157E-05  1.64041743E-05  1.12199677E-09  6.91661084E-10  6.40658098E-10  3.68954433E-10  5.06088529E-10  2.87782568E-10  3.37289436E-10  7.16180399E-10  2.82590508E-09  8.23812217E-08  6.68371510E-05  6.77662852E-05  7.12702426E-07  3.79160918E-05  2.94378390E-05  2.64230970E-05  2.43563885E-05  2.27949994E-05  2.48433016E-05  3.52812919E-05  4.92457218E-05  6.63791211E-05  7.94481921E-05  7.12702426E-07  7.12702426E-07  7.12702426E-07  7.12702426E-07  1.13875824E-04  1.32592809E-04  1.52946337E-04  1.78833271E-04  1.44501241E-05  2.38601489E-06  1.51599718E-05  2.14696291E-04  1.73806515E-04  3.39447183E-06  7.12702426E-07  7.12702426E-07  7.12702426E-07  7.12702426E-07  7.12702426E-07  7.12702426E-07  7.12702426E-07  7.12702426E-07  7.12702426E-07  7.12702426E-07  7.12702426E-07  7.12702426E-07  7.12702426E-07  7.12702426E-07  7.12702426E-07  1.03758716E-07  9.06426536E-08  8.68224449E-09  1.33550243E-07  8.33965913E-08  8.98413830E-08  1.15375544E-07  1.08015808E-07  2.54328501E-07  2.97386629E-07  5.61285283E-07  2.93468655E-07  2.81092772E-07  1.77710441E-07  3.46381426E-07  4.44723790E-07  6.06224250E-07  8.18350870E-07  6.58158187E-07  9.49478598E-07  1.95584373E-06  4.67157832E-06  4.08882021E-06  3.93059756E-06  7.12702426E-07  7.12702426E-07  7.12702426E-07  7.12702426E-07
      2.02120414E-06  2.09942402E-06  2.17432580E-06  2.52280176E-06  2.75112514E-06  2.77313334E-06  2.73834748E-06  2.88825585E-06  2.68177275E-06  2.90060222E-06  2.40662120E-06  1.68891289E-06  1.82364405E-06  1.60695658E-06  1.25302988E-06  9.69908076E-07  7.93551713E-07  7.22002377E-07  6.98670833E-07  7.17575930E-07  3.81840089E-07  3.68270050E-07  1.82152687E-07  2.63640088E-07  2.53503843E-07  5.46238032E-07  3.24084147E-07  2.16037391E-07  4.92873731E-07  8.40628169E-07  9.64517585E-07  1.02101642E-06  1.24354559E-06  1.23340160E-06  1.22523974E-06  1.28700019E-06  1.53716965E-06  1.72739995E-06  1.87014749E-06  2.32531749E-06  2.68502542E-06  3.14598725E-06  4.00396641E-06  3.42256219E-06  2.37899907E-06  1.58094034E-06  1.49667994E-06  1.49352322E-06  1.50771403E-06  1.32962371E-06  1.31063772E-06  7.12702426E-07  7.12702426E-07  7.12702426E-07  7.12702426E-07  7.12702426E-07  7.12702426E-07  7.12702426E-07  7.12702426E-07  9.81536927E-05  8.77242221E-05  7.44958880E-05  6.24195324E-05  4.97607613E-05  4.28170352E-05  3.44586077E-05  1.28352167E-05  5.38842106E-06  7.95974968E-07  5.24226702E-07  3.61226655E-07  7.12702426E-07  7.12702426E-07  7.12702426E-07  7.12702426E-07  7.12702426E-07  7.12702426E-07  7.12702426E-07  7.12702426E-07  7.12702426E-07  7.12702426E-07  7.12702426E-07  7.12702426E-07  7.12702426E-07  7.12702426E-07  7.12702426E-07  1.09149573E-05  1.55413671E-05  9.89086990E-10  5.84611882E-10  9.12483679E-10  7.11271689E-10  1.06935376E-09  9.58354916E-10  7.03236189E-10  1.76873020E-09  4.50449873E-09  1.45091535E-07  7.41749697E-05  8.14662715E-05  6.30549023E-05  4.98217716E-05  4.34335185E-05  4.04861501E-05  3.84532703E-05  2.32250567E-06  2.75985042E-06  2.32592010E-06  5.90876575E-05  7.94883283E-05  8.54767595E-05  7.12702426E-07  7.12702426E-07  8.17559661E-05  9.22229439E-05  1.06925866E-04  1.07542933E-04  1.29937992E-04  3.55983402E-06  1.86663854E-04  1.28870123E-05  1.25715848E-05  2.00841008E-04  1.87822219E-04  3.62858420E-06  7.12702426E-07  7.12702426E-07  7.12702426E-07  7.12702426E-07  7.12702426E-07  7.12702426E-07  7.12702426E-07  7.12702426E-07  7.12702426E-07  7.12702426E-07  7.12702426E-07  7.12702426E-07  7.12702426E-07  7.12702426E-07  7.12702426E-07  9.12750215E-08  8.00800616E-08  6.08509588E-08  9.12862464E-08  6.09125905E-08  1.17380848E-07  2.45009837E-07  8.48175787E-10  4.92085359E-09  5.47283791E-07  7.44250886E-07  7.20810306E-07  3.56575648E-07  4.63021602E-07  4.53737881E-07  6.45100729E-07  4.49491912E-07  6.18062386E-07  8.88825078E-07  9.41667230E-07  2.39137303E-06  2.89484674E-06  3.29035254E-06  3.46828201E-06  7.12702426E-07  7.12702426E-07  7.12702426E-07  7.12702426E-07
      1.78093481E-06  1.76802151E-06  2.05853427E-06  2.33354278E-06  2.49183991E-06  2.94639987E-06  2.98739195E-06  2.98671306E-06  3.14931537E-06  3.21710594E-06  2.72449220E-06  1.98705181E-06  1.71315664E-06  1.53213661E-06  1.29108478E-06  1.02196525E-06  7.10594150E-07  6.19902107E-07  5.69603692E-07  5.95301369E-07  4.59927321E-07  4.42377916E-07  3.65926675E-07  2.53770908E-07  2.65786775E-07  3.00724276E-07  5.51614660E-07  4.93396222E-07  5.66610286E-07  7.54728809E-07  1.23990950E-06  1.24882844E-06  2.18702508E-06  2.36288016E-06  1.80371290E-06  1.83688293E-06  2.05658466E-06  2.76277914E-06  2.81810011E-06  3.17151636E-06  3.12832751E-06  3.64212724E-06  4.23844744E-06  3.55952525E-06  2.10226811E-06  1.45456641E-06  1.29049946E-06  1.24479826E-06  1.19720333E-06  1.21401814E-06  1.30689298E-06  7.12702426E-07  7.12702426E-07  7.12702426E-07  7.12702426E-07  7.12702426E-07  7.12702426E-07  7.12702426E-07  7.12702426E-07  8.89692093E-05  7.80271545E-05  7.86751006E-05  5.75097902E-05  4.75652696E-05  4.22961475E-05  3.52149971E-05  1.12095630E-05  3.39148783E-06  7.23376689E-07  4.20743329E-07  3.04707666E-07  7.12702426E-07  7.12702426E-07  7.12702426E-07  7.12702426E-07  7.12702426E-07  7.12702426E-07  7.12702426E-07  7.12702426E-07  1.67453825E-06  2.13540224E-06  2.18102297E-06  2.63898418E-06  3.20196362E-06  7.12702426E-07  7.12702426E-07  9.87362879E-06  8.84611433E-10  1.16468340E-09  6.19593180E-10  1.36359537E-09  5.64558544E-10  1.43851107E-09  7.39159519E-10  1.44704305E-09  1.66564487E-08  2.74113600E-08  2.70843115E-08  8.37340519E-05  8.41681943E-05  7.37609432E-05  7.17393956E-05  6.58250690E-05  5.31882004E-06  6.29276446E-06  3.76488558E-06  9.13670663E-07  1.72680451E-07  1.30002922E-07  5.40389651E-07  8.12873962E-05  8.23876439E-05  8.04486076E-05  8.65694340E-05  7.99395059E-05  8.48310831E-05  1.00291052E-04  1.43164752E-04  3.08653663E-06  4.10053622E-06  5.03523439E-06  1.01925791E-05  1.99163866E-04  3.30573500E-05  3.85806053E-06  7.12702426E-07  7.12702426E-07  7.12702426E-07  7.12702426E-07  7.12702426E-07  7.12702426E-07  7.12702426E-07  7.12702426E-07  7.12702426E-07  7.12702426E-07  7.12702426E-07  7.12702426E-07  7.12702426E-07  7.12702426E-07  7.12702426E-07  8.57518059E-08  2.19895576E-08  7.70414543E-08  2.15500327E-07  9.65846486E-08  9.70246779E-08  3.46656120E-07  1.40646364E-09  7.96084219E-08  2.33995434E-06  1.82613660E-06  9.07358539E-07  4.72361966E-07  9.03672977E-07  6.63719791E-07  8.60169701E-07  4.68446008E-07  3.65470547E-07  8.95040701E-07  1.04922881E-06  3.81169887E-06  2.50535089E-06  2.81782165E-06  7.12702426E-07  7.12702426E-07  7.12702426E-07  7.12702426E-07  7.12702426E-07
      1.59971608E-06  1.64776435E-06  1.74902471E-06  2.03446723E-06  2.27576382E-06  2.72336767E-06  2.74679396E-06  2.95180408E-06  2.99099888E-06  3.03029487E-06  2.58164042E-06  1.98803381E-06  1.73322476E-06  1.44480618E-06  1.28650005E-06  1.10038685E-06  7.72161577E-07  6.14063457E-07  5.08969481E-07  5.28317101E-07  5.07520831E-07  5.30082296E-07  5.40898370E-07  3.41234490E-07  3.15562874E-07  3.37593614E-07  9.58112933E-07  6.28102289E-07  2.59527639E-07  4.94095004E-07  7.43722374E-07  1.37082484E-06  1.74584940E-06  4.24994820E-06  3.22615767E-06  2.83048841E-06  3.34120690E-06  3.69800433E-06  7.12702426E-07  7.12702426E-07  4.55925187E-06  5.02340079E-06  4.97281002E-06  3.81153147E-06  2.31356981E-06  1.52416853E-06  1.37192702E-06  1.12839746E-06  9.40451102E-07  9.46661813E-07  1.14099661E-06  7.12702426E-07  7.12702426E-07  7.12702426E-07  1.46204220E-06  7.12702426E-07  7.12702426E-07  7.12702426E-07  7.12702426E-07  7.12702426E-07  7.61283641E-05  7.32990720E-05  5.68751908E-05  5.41582957E-05  4.78097327E-05  3.71744295E-05  1.15528038E-05  1.00674213E-06  5.21848640E-07  3.49412388E-07  2.81979003E-07  7.12702426E-07  7.12702426E-07  7.12702426E-07  7.12702426E-07  7.12702426E-07  7.12702426E-07  7.12702426E-07  6.72740356E-10  1.67395001E-06  2.86875892E-08  4.07232825E-08  7.76283527E-08  3.22927985E-06  4.29929358E-06  2.41413724E-09  1.41717180E-09  1.53667016E-09  8.06769972E-10  5.53875325E-10  1.27891325E-09  1.38158927E-09  1.89527317E-09  1.98842675E-09  1.85975166E-08  1.69267214E-08  5.47727431E-08  5.28532931E-07  3.67760120E-06  2.67410161E-06  2.36194379E-06  9.32835877E-06  9.37865994E-06  2.81758962E-06  6.27962310E-07  7.40311217E-07  1.06788010E-06  1.80499269E-07  2.10412242E-07  1.31128976E-07  3.58124272E-07  2.43783806E-07  2.52466107E-07  2.03225478E-07  2.43125706E-07  2.46168506E-07  1.01024336E-04  1.36694715E-04  1.50808655E-04  2.89099706E-06  3.35633696E-06  1.63271512E-04  3.77151771E-05  5.33216912E-06  7.12702426E-07  7.12702426E-07  7.12702426E-07  7.12702426E-07  7.12702426E-07  7.12702426E-07  7.12702426E-07  7.12702426E-07  7.12702426E-07  7.12702426E-07  7.12702426E-07  7.12702426E-07  7.12702426E-07  7.12702426E-07  7.12702426E-07  9.22965871E-08  8.39903024E-08  8.37526251E-08  1.12252415E-07  1.66196207E-07  9.82978851E-08  2.05641757E-07  1.81808818E-09  7.55004803E-10  8.15016106E-09  3.02805653E-07  2.89357247E-06  1.58468543E-06  1.14732428E-06  2.22109998E-06  1.17901383E-06  7.07783970E-07  5.54718837E-07  7.76686782E-07  5.17927727E-07  9.51096874E-07  3.68018633E-06  2.10434190E-06  2.01623482E-05  7.12702426E-07  7.12702426E-07  7.12702426E-07  7.12702426E-07  7.12702426E-07
      1.33464198E-06  1.44937092E-06  1.51526332E-06  1.72840355E-06  1.94797636E-06  7.12702426E-07  7.12702426E-07  7.12702426E-07  2.69209528E-06  2.53477959E-06  2.39821995E-06  1.97074759E-06  1.73623031E-06  1.58066958E-06  1.51085098E-06  1.21177954E-06  1.09949678E-06  9.19242146E-07  7.07686060E-07  6.29170054E-07  6.26466552E-07  6.04668060E-07  6.06543826E-07  5.03843639E-07  3.96287217E-07  6.48933313E-07  6.86486142E-07  6.19390487E-07  2.05238222E-07  4.01541723E-07  7.66750460E-07  5.05792447E-07  5.70095470E-07  1.13725948E-06  5.96062664E-06  5.74946378E-06  6.53708885E-06  7.12702426E-07  7.12702426E-07  7.12702426E-07  6.78202500E-06  7.09166255E-06  6.33594932E-06  4.24178076E-06  2.53546988E-06  1.79229652E-06  1.36397570E-06  1.04000285E-06  7.93307790E-07  8.56074984E-07  1.14119081E-06  1.08021738E-06  1.04799804E-06  1.27968860E-06  1.44748322E-06  1.65464995E-06  2.15149483E-06  2.75324341E-06  7.12702426E-07  7.12702426E-07  7.12702426E-07  7.63411359E-05  6.44464288E-05  5.66950685E-05  4.90535015E-05  4.06687252E-05  1.21418211E-06  8.08907576E-07  4.88723868E-07  2.99728775E-07  7.12702426E-07  7.12702426E-07  7.12702426E-07  7.12702426E-07  7.12702426E-07  7.12702426E-07  7.12702426E-07  9.44663090E-10  7.48985779E-10  9.79995968E-10  1.27589780E-09  8.57093539E-10  1.56980290E-08  6.88990833E-08  4.03595710E-06  7.85129562E-10  7.89413474E-10  6.44783492E-10  5.25217056E-10  6.92428519E-10  1.34406377E-09  1.85641407E-09  2.90653827E-09  8.79138834E-09  1.25773144E-08  1.07364784E-08  1.85767414E-08  1.52228536E-08  1.17214712E-07  4.20872697E-07  2.88067717E-07  3.38593288E-07  3.08334256E-07  3.89229857E-07  1.44724326E-07  2.89952597E-07  3.85140730E-08  1.56126690E-07  8.99042400E-08  6.15326887E-08  6.73253907E-08  3.02988898E-07  1.05625878E-08  1.17162859E-08  5.49169032E-08  3.61232604E-08  9.81506752E-05  1.86626250E-06  1.71727904E-05  2.72104532E-06  1.08153468E-05  1.36860209E-04  3.10767742E-05  4.83186657E-06  7.12702426E-07  7.12702426E-07  7.12702426E-07  7.12702426E-07  7.12702426E-07  7.12702426E-07  7.12702426E-07  7.12702426E-07  7.12702426E-07  7.12702426E-07  7.12702426E-07  7.12702426E-07  7.12702426E-07  7.12702426E-07  7.12702426E-07  9.59994645E-08  1.00475665E-07  1.13327823E-07  2.89647137E-08  2.26243500E-09  9.83937710E-08  9.64447694E-09  6.67312678E-10  3.44545975E-07  1.62011592E-09  1.00000000E-10  1.55901093E-06  1.44640291E-06  1.34887141E-06  2.93427092E-06  1.42037142E-06  1.59031535E-06  8.37572231E-07  9.68260982E-07  6.19435373E-07  2.80021410E-06  4.87806074E-06  6.81558669E-06  2.13845238E-05  1.73885919E-05  7.12702426E-07  7.12702426E-07  7.12702426E-07  7.12702426E-07
      1.11276732E-06  7.12702426E-07  7.12702426E-07  7.12702426E-07  7.12702426E-07  7.12702426E-07  7.12702426E-07  7.12702426E-07  7.12702426E-07  7.12702426E-07  2.38372109E-06  2.27062732E-06  2.06691623E-06  1.98880230E-06  2.00937286E-06  1.56635265E-06  1.46932892E-06  1.23297645E-06  1.01792705E-06  7.12702426E-07  7.12702426E-07  7.12702426E-07  7.12702426E-07  7.12702426E-07  5.76043935E-07  7.49984784E-07  9.83396618E-07  5.08482417E-07  4.61288741E-07  2.34178687E-07  4.11126551E-07  4.43606528E-07  1.24830340E-06  7.07588941E-07  8.49575696E-07  1.01565631E-05  1.21169838E-05  7.12702426E-07  7.12702426E-07  7.12702426E-07  7.12702426E-07  8.98371415E-06  7.48141696E-06  5.23607745E-06  3.35273484E-06  1.99425791E-06  1.41568194E-06  9.83972281E-07  7.92780128E-07  8.09006166E-07  1.01893007E-06  1.04463547E-06  1.02780319E-06  1.10396766E-06  1.33788293E-06  1.59555527E-06  1.97784896E-06  2.28167340E-06  2.25757396E-06  7.12702426E-07  7.12702426E-07  7.99902531E-05  6.25308623E-05  5.71658078E-05  5.26313866E-05  4.45006599E-05  1.11191729E-06  7.59525358E-07  7.12702426E-07  7.12702426E-07  7.12702426E-07  7.12702426E-07  7.12702426E-07  7.12702426E-07  3.95690700E-07  2.80981688E-10  5.91055659E-10  7.17152970E-10  8.31044594E-10  7.14047891E-10  7.31165312E-10  1.16544580E-09  9.17190535E-09  1.55884148E-08  5.01283322E-08  1.44463962E-09  1.36426626E-09  1.25320874E-09  5.19356469E-10  1.11180376E-09  1.50508423E-09  2.27891936E-09  2.17058332E-09  1.22785098E-08  2.23841096E-08  3.75177161E-08  1.98841802E-08  1.31869358E-08  4.39289416E-07  1.17476645E-06  9.98441018E-08  8.91923068E-08  8.24498122E-08  6.43506210E-08  3.08736702E-08  1.86669695E-07  2.53522770E-07  7.67810251E-08  5.55231292E-08  3.30553901E-08  8.17346049E-08  7.39600331E-08  1.32345696E-08  1.18841428E-08  1.17233374E-08  1.84195011E-08  7.21519767E-07  2.07415233E-06  9.89349831E-07  4.45412810E-06  1.72898814E-05  1.30241942E-04  6.25006608E-06  7.12702426E-07  7.12702426E-07  7.12702426E-07  7.12702426E-07  7.12702426E-07  7.12702426E-07  7.12702426E-07  7.12702426E-07  7.12702426E-07  7.12702426E-07  7.12702426E-07  7.12702426E-07  7.12702426E-07  7.12702426E-07  7.12702426E-07  7.12702426E-07  1.21468880E-07  1.34322287E-07  1.63520791E-07  3.10433195E-08  4.58096883E-09  4.62421597E-09  2.84453916E-10  2.80122273E-10  5.81360211E-07  3.43945763E-08  1.00000000E-10  7.48088305E-10  9.23049985E-07  1.32214546E-06  1.94045168E-06  1.75044250E-06  1.51867773E-06  1.12046410E-06  7.48943840E-07  8.52347822E-07  2.70233293E-06  1.31100040E-05  2.57219889E-05  2.05583738E-05  1.67013332E-05  7.12702426E-07  7.12702426E-07  7.12702426E-07  7.12702426E-07
      7.12702426E-07  7.12702426E-07  7.12702426E-07  7.12702426E-07  7.12702426E-07  7.12702426E-07  7.12702426E-07  7.12702426E-07  7.12702426E-07  7.12702426E-07  7.12702426E-07  2.71135294E-06  2.87362630E-06  2.54887878E-06  2.63015583E-06  2.49298653E-06  1.84248005E-06  7.12702426E-07  7.12702426E-07  7.12702426E-07  7.12702426E-07  7.12702426E-07  7.12702426E-07  7.12702426E-07  7.12702426E-07  9.09796623E-07  1.11522212E-06  7.02553962E-07  4.76005866E-07  7.71158433E-07  5.41986270E-07  7.09494915E-07  8.17606340E-07  7.80515745E-07  1.33860879E-05  1.57092018E-05  1.90376569E-05  7.12702426E-07  7.12702426E-07  7.12702426E-07  7.12702426E-07  7.12702426E-07  8.08345574E-06  6.08399358E-06  3.98638082E-08  2.61527106E-06  6.49447943E-08  8.44773281E-08  6.18123464E-08  1.01925344E-06  9.90082245E-07  9.50818096E-07  9.95933767E-07  1.16062399E-06  1.29735849E-06  1.61559692E-06  1.74167754E-06  2.02396004E-06  1.93432755E-06  7.12702426E-07  7.12702426E-07  6.60381855E-05  5.45690139E-05  5.65587211E-05  5.37570430E-05  8.13156934E-06  8.78378540E-07  6.13727789E-07  7.12702426E-07  7.12702426E-07  1.97489562E-07  1.99960333E-07  2.21493869E-07  2.71448352E-07  8.66927060E-09  3.91843769E-10  5.55477023E-10  9.01145428E-10  6.61526283E-10  1.20449980E-09  2.14674487E-09  2.86166810E-09  1.85676468E-09  1.43741694E-08  1.20527900E-08  1.94025568E-09  2.44903063E-09  7.72035265E-08  6.13114221E-08  1.19357037E-09  2.28412227E-08  2.32290096E-09  1.15415581E-08  2.26167501E-08  1.84771684E-08  3.16905193E-08  2.80119504E-08  1.40601897E-08  3.82020827E-08  9.39553190E-08  2.38076285E-07  6.85568709E-07  6.67051162E-08  1.76343843E-08  2.16826808E-08  3.81503585E-08  9.50071959E-08  2.58316301E-08  4.49276788E-08  1.61642907E-08  1.08023517E-07  2.69090436E-08  3.72716985E-08  1.51952670E-08  6.10308142E-09  5.13964037E-08  8.58840028E-07  1.30612409E-06  2.43062716E-06  2.52003612E-06  1.31200479E-04  2.74864935E-05  5.41381414E-06  7.12702426E-07  7.12702426E-07  7.12702426E-07  7.12702426E-07  7.12702426E-07  7.12702426E-07  7.12702426E-07  7.12702426E-07  7.12702426E-07  7.12702426E-07  7.12702426E-07  7.12702426E-07  7.12702426E-07  7.12702426E-07  7.12702426E-07  7.12702426E-07  1.71152285E-07  1.82097496E-07  2.21047092E-07  9.02728900E-08  3.19575052E-08  2.80231786E-09  5.46175662E-10  2.54327663E-10  1.20773100E-10  1.19631244E-10  1.00000000E-10  5.28878907E-09  5.29349473E-07  1.00706384E-06  9.53223282E-07  1.05152728E-06  1.00277839E-06  7.66609882E-07  6.96882688E-07  1.12592973E-06  6.21515245E-06  8.42253250E-06  2.56838627E-05  1.83902402E-05  1.70722493E-05  7.12702426E-07  7.12702426E-07  7.12702426E-07  7.12702426E-07
      7.12702426E-07  7.12702426E-07  7.12702426E-07  7.12702426E-07  7.12702426E-07  7.12702426E-07  7.12702426E-07  7.12702426E-07  7.12702426E-07  7.12702426E-07  7.12702426E-07  2.93427092E-06  3.15550055E-06  2.56473980E-06  7.12702426E-07  7.12702426E-07  7.12702426E-07  7.12702426E-07  7.12702426E-07  7.12702426E-07  7.12702426E-07  7.12702426E-07  7.12702426E-07  7.12702426E-07  7.12702426E-07  1.12093783E-06  1.48101483E-06  1.90034910E-06  6.79161527E-07  6.33242331E-07  3.57986676E-06  5.53694739E-06  7.75842147E-06  9.54414008E-06  1.38885772E-05  1.88174982E-05  7.12702426E-07  7.12702426E-07  7.12702426E-07  7.12702426E-07  7.12702426E-07  7.12702426E-07  9.19056455E-06  7.17123836E-06  8.43700816E-07  4.63827574E-07  7.71810667E-08  8.94456175E-07  7.84532396E-07  1.18890761E-06  1.01696633E-06  9.73663842E-07  1.09870032E-06  1.19464808E-06  1.31922940E-06  1.65550404E-06  1.92929219E-06  2.32548345E-06  1.88687240E-06  2.08587259E-06  7.44580273E-05  6.11866083E-05  5.62222792E-05  5.11905613E-05  5.37878027E-05  8.41487898E-06  7.25651778E-07  4.80929812E-07  3.28238182E-07  2.74185239E-07  2.12350393E-07  2.13322289E-07  2.20453517E-07  9.76863385E-09  2.56941859E-10  3.38737562E-10  1.04926798E-09  1.57535399E-09  1.08480519E-09  1.42940148E-09  2.99878219E-09  1.28070063E-09  1.51685964E-09  5.25489314E-08  2.96785465E-08  5.74263752E-08  1.13294357E-07  9.49102335E-08  3.21255962E-07  2.57149294E-07  3.65869628E-07  4.00584842E-07  4.46379231E-08  2.20507985E-08  1.57497351E-08  2.41390135E-08  3.11898174E-08  4.67648441E-08  6.00391802E-08  3.31927915E-07  3.68299973E-08  1.02883288E-07  1.33644121E-07  1.33066647E-08  1.33275444E-08  2.39317226E-08  4.95398711E-08  8.41183060E-09  1.35961721E-08  1.23331493E-08  1.68673543E-08  4.04935742E-08  4.31913204E-08  9.35191467E-08  6.24073345E-08  7.00573554E-08  7.16037300E-07  9.95732584E-07  3.21508260E-06  1.39036209E-05  5.51077710E-05  2.57239941E-05  4.15723385E-06  7.12702426E-07  7.12702426E-07  7.12702426E-07  7.12702426E-07  7.12702426E-07  7.12702426E-07  7.12702426E-07  7.12702426E-07  7.12702426E-07  7.12702426E-07  7.12702426E-07  7.12702426E-07  7.12702426E-07  7.12702426E-07  7.12702426E-07  2.38477607E-07  2.11455814E-07  2.07393599E-07  2.65871125E-07  2.79040516E-07  3.59511428E-08  3.41448489E-09  8.55063273E-10  3.43750579E-10  2.42328326E-10  1.37272258E-07  8.40267364E-08  4.13856613E-09  2.97131401E-07  3.85553248E-07  3.45828134E-07  4.94238787E-07  6.79298002E-07  7.15307312E-07  1.00625810E-06  2.40849801E-06  2.43202063E-06  2.11338833E-06  1.41268520E-06  2.09898610E-05  7.12702426E-07  7.12702426E-07  7.12702426E-07  7.12702426E-07  7.12702426E-07
      7.12702426E-07  7.12702426E-07  7.12702426E-07  7.12702426E-07  7.12702426E-07  7.12702426E-07  7.12702426E-07  7.12702426E-07  7.12702426E-07  7.12702426E-07  7.12702426E-07  7.12702426E-07  7.12702426E-07  7.12702426E-07  7.12702426E-07  7.12702426E-07  7.12702426E-07  7.12702426E-07  7.12702426E-07  7.12702426E-07  7.12702426E-07  7.12702426E-07  7.12702426E-07  7.12702426E-07  7.12702426E-07  7.12702426E-07  7.12702426E-07  7.12702426E-07  2.38467396E-06  2.50886609E-06  7.12702426E-07  7.12702426E-07  7.12702426E-07  7.12702426E-07  7.12702426E-07  7.12702426E-07  2.32972832E-05  7.12702426E-07  7.12702426E-07  7.12702426E-07  7.12702426E-07  7.12702426E-07  8.92377576E-06  1.13019907E-06  1.30043466E-06  9.34824971E-07  1.27764449E-07  7.01514918E-07  1.13415206E-07  8.28685610E-08  1.07958897E-06  1.04549834E-06  1.10018268E-06  1.34591561E-06  1.64049308E-06  2.01211042E-06  2.22627110E-06  2.25607978E-06  2.29315085E-06  2.12610984E-06  7.66329645E-05  6.49828119E-05  6.05179479E-05  5.89482743E-05  6.60267303E-05  1.81976775E-05  6.85466346E-07  4.11594467E-07  3.24454066E-07  3.06396822E-07  2.59048795E-07  2.45581612E-07  9.36208553E-09  3.20902725E-10  1.33059342E-10  2.69426868E-10  1.37912798E-09  1.44402432E-09  2.68506080E-09  4.60741060E-09  2.34902821E-07  1.85915143E-09  3.01255678E-09  1.01528726E-07  1.18361050E-07  3.22414988E-06  4.31324620E-07  2.90455398E-07  8.14389055E-07  4.77292237E-07  3.92105435E-07  2.65867622E-08  3.48787997E-08  2.38318462E-08  1.70718557E-08  1.98456187E-08  1.06758584E-08  1.15529306E-08  1.14727011E-07  6.01805481E-07  2.34096167E-07  8.03674740E-07  1.09443220E-07  1.35283595E-07  1.25479762E-08  2.57769493E-08  3.35057102E-09  4.81923025E-09  1.17229642E-08  1.74687331E-08  1.02290486E-08  7.28546499E-09  3.91823979E-08  4.58150201E-08  6.82275191E-08  6.64581717E-07  2.81215324E-06  1.62996661E-06  1.54785292E-06  6.78997494E-06  5.85214917E-05  2.49063366E-05  3.54826401E-06  7.12702426E-07  7.12702426E-07  7.12702426E-07  7.12702426E-07  7.12702426E-07  7.12702426E-07  7.12702426E-07  7.12702426E-07  7.12702426E-07  7.12702426E-07  7.12702426E-07  7.12702426E-07  7.12702426E-07  7.12702426E-07  7.12702426E-07  2.02964245E-04  2.33772536E-07  2.55494207E-07  2.58973718E-07  2.63195265E-07  2.80320413E-07  3.71033553E-07  5.02088084E-07  5.52189721E-07  4.77927804E-10  2.40134753E-10  1.27316760E-07  8.56604331E-08  1.55965125E-07  4.17726061E-07  2.80066917E-07  3.57751314E-07  6.59201045E-07  9.72126705E-07  1.93736911E-06  2.10199115E-06  1.94427122E-06  7.12702426E-07  7.12702426E-07  9.22570738E-07  2.03488052E-05  7.12702426E-07  7.12702426E-07  7.12702426E-07  7.12702426E-07