# File generated by Flopy version 3.8.2 on 01/28/2025 at 14:56:36.
BEGIN options
  SAVE_FLOWS
END options

BEGIN dimensions
  MAXBOUND  760
END dimensions

BEGIN period  1
  1 1 1 100
  1 2 1 100
  1 3 1 100
  1 4 1 100
  1 5 1 100
  1 6 1 100
  1 7 1 100
  1 8 1 100
  1 9 1 100
  1 10 1 100
  1 11 1 100
  1 12 1 100
  1 13 1 100
  1 14 1 100
  1 15 1 100
  1 16 1 100
  1 17 1 100
  1 18 1 100
  1 19 1 100
  1 20 1 100
  1 21 1 100
  1 22 1 100
  1 23 1 100
  1 24 1 100
  1 25 1 100
  1 26 1 100
  1 27 1 100
  1 28 1 100
  1 29 1 100
  1 30 1 100
  1 31 1 100
  1 32 1 100
  1 33 1 100
  1 34 1 100
  1 35 1 100
  1 36 1 100
  1 37 1 100
  1 47 1 100
  1 48 1 100
  1 49 1 100
  1 50 1 100
  1 51 1 100
  1 52 1 100
  1 53 1 100
  1 54 1 100
  1 55 1 100
  1 56 1 100
  1 57 1 100
  1 58 1 100
  1 59 1 100
  1 60 1 100
  1 61 1 100
  1 62 1 100
  1 63 1 100
  1 64 1 100
  1 65 1 100
  1 66 1 100
  1 67 1 100
  1 68 1 100
  1 69 1 100
  1 70 1 100
  1 71 1 100
  1 72 1 100
  1 73 1 100
  1 74 1 100
  1 75 1 100
  1 76 1 100
  1 77 1 100
  1 78 1 100
  1 79 1 100
  1 80 1 100
  1 81 1 100
  1 82 1 100
  1 83 1 100
  1 84 1 100
  2 8 1 100
  2 9 1 100
  2 10 1 100
  2 11 1 100
  2 12 1 100
  2 13 1 100
  2 14 1 100
  2 15 1 100
  2 16 1 100
  2 17 1 100
  2 18 1 100
  2 19 1 100
  2 20 1 100
  2 21 1 100
  2 22 1 100
  2 23 1 100
  2 24 1 100
  2 25 1 100
  2 26 1 100
  2 27 1 100
  2 31 1 100
  2 32 1 100
  2 33 1 100
  2 34 1 100
  2 35 1 100
  2 36 1 100
  2 37 1 100
  2 38 1 100
  2 39 1 100
  2 40 1 100
  2 41 1 100
  2 42 1 100
  2 43 1 100
  2 44 1 100
  2 45 1 100
  2 46 1 100
  2 47 1 100
  2 48 1 100
  2 49 1 100
  2 50 1 100
  2 51 1 100
  2 52 1 100
  2 53 1 100
  2 54 1 100
  2 55 1 100
  2 56 1 100
  2 57 1 100
  2 58 1 100
  2 59 1 100
  2 60 1 100
  2 61 1 100
  2 62 1 100
  2 76 1 100
  2 77 1 100
  2 78 1 100
  2 79 1 100
  2 80 1 100
  2 81 1 100
  2 82 1 100
  2 83 1 100
  2 84 1 100
  3 1 1 100
  3 2 1 100
  3 3 1 100
  3 4 1 100
  3 5 1 100
  3 6 1 100
  3 7 1 100
  3 8 1 100
  3 9 1 100
  3 10 1 100
  3 11 1 100
  3 12 1 100
  3 13 1 100
  3 14 1 100
  3 15 1 100
  3 16 1 100
  3 17 1 100
  3 18 1 100
  3 19 1 100
  3 20 1 100
  3 21 1 100
  3 22 1 100
  3 23 1 100
  3 24 1 100
  3 25 1 100
  3 26 1 100
  3 27 1 100
  3 28 1 100
  3 29 1 100
  3 30 1 100
  3 31 1 100
  3 32 1 100
  3 33 1 100
  3 34 1 100
  3 35 1 100
  3 36 1 100
  3 37 1 100
  3 38 1 100
  3 39 1 100
  3 40 1 100
  3 41 1 100
  3 42 1 100
  3 43 1 100
  3 44 1 100
  3 45 1 100
  3 46 1 100
  3 47 1 100
  3 48 1 100
  3 49 1 100
  3 50 1 100
  3 51 1 100
  3 52 1 100
  3 53 1 100
  3 54 1 100
  3 55 1 100
  3 56 1 100
  3 57 1 100
  3 58 1 100
  3 59 1 100
  3 60 1 100
  3 61 1 100
  3 62 1 100
  3 63 1 100
  3 64 1 100
  3 65 1 100
  3 66 1 100
  3 67 1 100
  3 68 1 100
  3 69 1 100
  3 70 1 100
  3 71 1 100
  3 72 1 100
  3 73 1 100
  3 74 1 100
  3 75 1 100
  3 76 1 100
  3 77 1 100
  3 78 1 100
  3 79 1 100
  3 80 1 100
  3 81 1 100
  3 82 1 100
  3 83 1 100
  3 84 1 100
  4 1 1 100
  4 2 1 100
  4 3 1 100
  4 4 1 100
  4 5 1 100
  4 6 1 100
  4 7 1 100
  4 8 1 100
  4 9 1 100
  4 10 1 100
  4 11 1 100
  4 12 1 100
  4 13 1 100
  4 14 1 100
  4 15 1 100
  4 16 1 100
  4 17 1 100
  4 18 1 100
  4 19 1 100
  4 20 1 100
  4 21 1 100
  4 22 1 100
  4 23 1 100
  4 24 1 100
  4 25 1 100
  4 26 1 100
  4 27 1 100
  4 28 1 100
  4 29 1 100
  4 30 1 100
  4 31 1 100
  4 32 1 100
  4 33 1 100
  4 34 1 100
  4 35 1 100
  4 36 1 100
  4 37 1 100
  4 38 1 100
  4 39 1 100
  4 40 1 100
  4 41 1 100
  4 42 1 100
  4 43 1 100
  4 44 1 100
  4 45 1 100
  4 46 1 100
  4 47 1 100
  4 48 1 100
  4 49 1 100
  4 50 1 100
  4 51 1 100
  4 52 1 100
  4 53 1 100
  4 54 1 100
  4 55 1 100
  4 56 1 100
  4 57 1 100
  4 58 1 100
  4 59 1 100
  4 60 1 100
  4 61 1 100
  4 62 1 100
  4 63 1 100
  4 64 1 100
  4 65 1 100
  4 66 1 100
  4 67 1 100
  4 68 1 100
  4 69 1 100
  4 70 1 100
  4 71 1 100
  4 72 1 100
  4 73 1 100
  4 74 1 100
  4 75 1 100
  4 76 1 100
  4 77 1 100
  4 78 1 100
  4 79 1 100
  4 80 1 100
  4 81 1 100
  4 82 1 100
  4 83 1 100
  4 84 1 100
  5 1 1 100
  5 2 1 100
  5 3 1 100
  5 4 1 100
  5 5 1 100
  5 6 1 100
  5 7 1 100
  5 8 1 100
  5 9 1 100
  5 10 1 100
  5 11 1 100
  5 12 1 100
  5 13 1 100
  5 14 1 100
  5 15 1 100
  5 16 1 100
  5 17 1 100
  5 18 1 100
  5 19 1 100
  5 20 1 100
  5 21 1 100
  5 22 1 100
  5 23 1 100
  5 24 1 100
  5 25 1 100
  5 26 1 100
  5 27 1 100
  5 28 1 100
  5 29 1 100
  5 30 1 100
  5 31 1 100
  5 32 1 100
  5 33 1 100
  5 34 1 100
  5 35 1 100
  5 36 1 100
  5 37 1 100
  5 38 1 100
  5 39 1 100
  5 40 1 100
  5 41 1 100
  5 42 1 100
  5 43 1 100
  5 44 1 100
  5 45 1 100
  5 46 1 100
  5 47 1 100
  5 48 1 100
  5 49 1 100
  5 50 1 100
  5 51 1 100
  5 52 1 100
  5 53 1 100
  5 54 1 100
  5 55 1 100
  5 56 1 100
  5 57 1 100
  5 58 1 100
  5 59 1 100
  5 60 1 100
  5 61 1 100
  5 62 1 100
  5 63 1 100
  5 64 1 100
  5 65 1 100
  5 66 1 100
  5 67 1 100
  5 68 1 100
  5 69 1 100
  5 70 1 100
  5 71 1 100
  5 72 1 100
  5 73 1 100
  5 74 1 100
  5 75 1 100
  5 76 1 100
  5 77 1 100
  5 78 1 100
  5 79 1 100
  5 80 1 100
  5 81 1 100
  5 82 1 100
  5 83 1 100
  5 84 1 100
  1 1 168 0
  1 2 168 0
  1 3 168 0
  1 13 168 0
  1 14 168 0
  1 15 168 0
  1 16 168 0
  1 17 168 0
  1 18 168 0
  1 19 168 0
  1 20 168 0
  1 21 168 0
  1 22 168 0
  1 23 168 0
  1 24 168 0
  1 25 168 0
  1 26 168 0
  1 27 168 0
  1 28 168 0
  1 29 168 0
  1 30 168 0
  1 31 168 0
  1 32 168 0
  1 33 168 0
  1 34 168 0
  1 35 168 0
  1 36 168 0
  1 37 168 0
  1 38 168 0
  1 39 168 0
  1 40 168 0
  1 41 168 0
  1 42 168 0
  1 43 168 0
  1 44 168 0
  1 45 168 0
  1 46 168 0
  1 47 168 0
  1 48 168 0
  1 49 168 0
  1 50 168 0
  1 51 168 0
  1 52 168 0
  1 53 168 0
  1 54 168 0
  1 55 168 0
  1 56 168 0
  1 57 168 0
  1 58 168 0
  1 59 168 0
  1 60 168 0
  1 61 168 0
  1 62 168 0
  1 63 168 0
  1 64 168 0
  1 65 168 0
  1 66 168 0
  1 67 168 0
  1 68 168 0
  1 69 168 0
  1 70 168 0
  1 71 168 0
  1 72 168 0
  1 73 168 0
  1 74 168 0
  1 75 168 0
  1 76 168 0
  1 77 168 0
  1 78 168 0
  1 82 168 0
  1 83 168 0
  1 84 168 0
  2 1 168 0
  2 2 168 0
  2 3 168 0
  2 4 168 0
  2 5 168 0
  2 6 168 0
  2 7 168 0
  2 8 168 0
  2 9 168 0
  2 10 168 0
  2 11 168 0
  2 12 168 0
  2 13 168 0
  2 14 168 0
  2 15 168 0
  2 16 168 0
  2 17 168 0
  2 18 168 0
  2 19 168 0
  2 20 168 0
  2 21 168 0
  2 22 168 0
  2 23 168 0
  2 24 168 0
  2 25 168 0
  2 26 168 0
  2 27 168 0
  2 28 168 0
  2 29 168 0
  2 30 168 0
  2 31 168 0
  2 32 168 0
  2 33 168 0
  2 34 168 0
  2 35 168 0
  2 36 168 0
  2 37 168 0
  2 38 168 0
  2 39 168 0
  2 40 168 0
  2 41 168 0
  2 42 168 0
  2 43 168 0
  2 44 168 0
  2 45 168 0
  2 46 168 0
  2 47 168 0
  2 84 168 0
  3 1 168 0
  3 2 168 0
  3 3 168 0
  3 4 168 0
  3 5 168 0
  3 6 168 0
  3 7 168 0
  3 8 168 0
  3 9 168 0
  3 10 168 0
  3 11 168 0
  3 12 168 0
  3 13 168 0
  3 14 168 0
  3 15 168 0
  3 16 168 0
  3 17 168 0
  3 18 168 0
  3 19 168 0
  3 20 168 0
  3 21 168 0
  3 22 168 0
  3 23 168 0
  3 24 168 0
  3 25 168 0
  3 26 168 0
  3 27 168 0
  3 28 168 0
  3 29 168 0
  3 30 168 0
  3 31 168 0
  3 32 168 0
  3 33 168 0
  3 34 168 0
  3 35 168 0
  3 36 168 0
  3 37 168 0
  3 38 168 0
  3 39 168 0
  3 40 168 0
  3 41 168 0
  3 42 168 0
  3 43 168 0
  3 44 168 0
  3 45 168 0
  3 46 168 0
  3 47 168 0
  3 48 168 0
  3 49 168 0
  3 50 168 0
  3 51 168 0
  3 52 168 0
  3 53 168 0
  3 54 168 0
  3 55 168 0
  3 56 168 0
  3 57 168 0
  3 58 168 0
  3 59 168 0
  3 60 168 0
  3 61 168 0
  3 62 168 0
  3 63 168 0
  3 64 168 0
  3 65 168 0
  3 66 168 0
  3 67 168 0
  3 68 168 0
  3 69 168 0
  3 70 168 0
  3 71 168 0
  3 72 168 0
  3 73 168 0
  3 74 168 0
  3 75 168 0
  3 76 168 0
  3 77 168 0
  3 78 168 0
  3 79 168 0
  3 80 168 0
  3 81 168 0
  3 82 168 0
  3 83 168 0
  3 84 168 0
  4 1 168 0
  4 2 168 0
  4 3 168 0
  4 4 168 0
  4 5 168 0
  4 6 168 0
  4 7 168 0
  4 8 168 0
  4 9 168 0
  4 10 168 0
  4 11 168 0
  4 12 168 0
  4 13 168 0
  4 14 168 0
  4 15 168 0
  4 16 168 0
  4 17 168 0
  4 18 168 0
  4 19 168 0
  4 20 168 0
  4 21 168 0
  4 22 168 0
  4 23 168 0
  4 24 168 0
  4 25 168 0
  4 26 168 0
  4 27 168 0
  4 28 168 0
  4 29 168 0
  4 30 168 0
  4 31 168 0
  4 32 168 0
  4 33 168 0
  4 34 168 0
  4 35 168 0
  4 36 168 0
  4 37 168 0
  4 38 168 0
  4 39 168 0
  4 40 168 0
  4 41 168 0
  4 42 168 0
  4 43 168 0
  4 44 168 0
  4 45 168 0
  4 46 168 0
  4 47 168 0
  4 48 168 0
  4 49 168 0
  4 50 168 0
  4 51 168 0
  4 52 168 0
  4 53 168 0
  4 54 168 0
  4 55 168 0
  4 56 168 0
  4 57 168 0
  4 58 168 0
  4 59 168 0
  4 60 168 0
  4 61 168 0
  4 62 168 0
  4 63 168 0
  4 64 168 0
  4 65 168 0
  4 66 168 0
  4 67 168 0
  4 68 168 0
  4 69 168 0
  4 70 168 0
  4 71 168 0
  4 72 168 0
  4 73 168 0
  4 74 168 0
  4 75 168 0
  4 76 168 0
  4 77 168 0
  4 78 168 0
  4 79 168 0
  4 80 168 0
  4 81 168 0
  4 82 168 0
  4 83 168 0
  4 84 168 0
  5 1 168 0
  5 2 168 0
  5 3 168 0
  5 4 168 0
  5 5 168 0
  5 6 168 0
  5 7 168 0
  5 8 168 0
  5 9 168 0
  5 10 168 0
  5 11 168 0
  5 12 168 0
  5 13 168 0
  5 14 168 0
  5 15 168 0
  5 16 168 0
  5 17 168 0
  5 18 168 0
  5 19 168 0
  5 20 168 0
  5 21 168 0
  5 22 168 0
  5 23 168 0
  5 24 168 0
  5 25 168 0
  5 26 168 0
  5 27 168 0
  5 28 168 0
  5 29 168 0
  5 30 168 0
  5 31 168 0
  5 32 168 0
  5 33 168 0
  5 34 168 0
  5 35 168 0
  5 36 168 0
  5 37 168 0
  5 38 168 0
  5 39 168 0
  5 40 168 0
  5 41 168 0
  5 42 168 0
  5 43 168 0
  5 44 168 0
  5 45 168 0
  5 46 168 0
  5 47 168 0
  5 48 168 0
  5 49 168 0
  5 50 168 0
  5 51 168 0
  5 52 168 0
  5 53 168 0
  5 54 168 0
  5 55 168 0
  5 56 168 0
  5 57 168 0
  5 58 168 0
  5 59 168 0
  5 60 168 0
  5 61 168 0
  5 62 168 0
  5 63 168 0
  5 64 168 0
  5 65 168 0
  5 66 168 0
  5 67 168 0
  5 68 168 0
  5 69 168 0
  5 70 168 0
  5 71 168 0
  5 72 168 0
  5 73 168 0
  5 74 168 0
  5 75 168 0
  5 76 168 0
  5 77 168 0
  5 78 168 0
  5 79 168 0
  5 80 168 0
  5 81 168 0
  5 82 168 0
  5 83 168 0
  5 84 168 0
END period  1

