# File generated by Flopy version 3.8.2 on 01/22/2025 at 12:04:54.
BEGIN options
  XORIGIN       0.00000000
  YORIGIN       0.00000000
END options

BEGIN dimensions
  NLAY  4
  NROW  84
  NCOL  168
END dimensions

BEGIN griddata
  delr
    CONSTANT       1.50000000
  delc
    CONSTANT       1.50000000
  top
    INTERNAL  FACTOR  1.0
        -6.00000000      -6.00000000      -6.00000000      -6.00000000      -6.00000000      -6.00000000      -6.00000000      -6.00000000      -6.00000000      -6.00000000      -6.00000000      -6.00000000      -6.00000000      -6.00000000      -6.00000000      -6.00000000      -6.00000000      -6.00000000      -6.00000000      -6.00000000      -6.00000000      -6.00000000      -6.00000000      -6.00000000      -6.00000000      -6.00000000      -6.00000000      -6.00000000      -6.00000000      -6.00000000      -6.00000000      -6.00000000      -6.00000000      -6.00000000      -6.00000000      -6.00000000      -6.00000000      -6.00000000      -6.00000000      -6.00000000      -6.00000000      -6.00000000      -6.00000000      -6.00000000      -6.00000000      -6.00000000      -6.00000000      -6.00000000      -6.00000000      -6.00000000      -6.00000000      -6.00000000      -5.98999977      -5.98999977      -5.98999977      -5.98999977      -5.98999977      -6.00000000      -6.00000000      -6.00000000      -6.00000000      -6.00000000      -6.00000000      -6.00000000      -6.00000000      -6.00000000      -6.00000000      -6.00000000      -6.00000000      -6.00000000      -6.00000000      -6.00000000      -5.98999977      -5.98999977      -5.98999977      -5.98999977      -5.98999977      -5.98999977      -5.98999977      -5.98999977      -5.98999977      -5.98999977      -5.98999977      -5.98999977      -6.00000000      -6.00000000      -6.00000000      -6.00000000      -6.00000000      -6.00000000      -6.00000000      -6.00000000      -6.00000000      -6.00000000      -6.00000000      -6.00000000      -6.00000000      -6.00000000      -6.00000000      -6.00000000      -6.00000000      -6.00000000      -6.00000000      -6.00000000      -6.00000000      -6.00000000      -6.00000000      -6.00000000      -6.00000000      -6.00000000      -6.00000000      -6.00000000      -6.00000000      -6.00000000      -6.00000000      -6.00000000      -6.00000000      -6.00000000      -6.00000000      -6.00000000      -6.00000000      -6.00000000      -6.00000000      -6.00000000      -6.00000000      -6.00000000      -5.98999977      -5.98999977      -5.98999977      -5.98999977      -5.98999977      -5.98999977      -5.98999977      -5.98999977      -5.98999977      -5.98999977      -5.98999977      -5.98999977      -5.98999977      -5.98999977      -6.00000000      -6.00000000      -6.00000000      -6.00000000      -6.00000000      -6.00000000      -6.00000000      -6.00000000      -6.00000000      -6.00000000      -6.00000000      -6.00000000      -6.00000000      -6.00000000      -6.00000000      -6.00000000      -6.00000000      -6.00000000      -6.00000000      -6.00000000      -6.00000000      -6.00000000      -6.00000000      -6.00000000      -6.00000000      -6.00000000      -6.00000000      -6.00000000
        -6.00000000      -6.00000000      -6.00000000      -6.00000000      -6.00000000      -6.00000000      -6.00000000      -6.00000000      -6.00000000      -6.00000000      -6.00000000      -6.00000000      -6.00000000      -6.00000000      -6.00000000      -6.00000000      -6.00000000      -6.00000000      -6.00000000      -6.00000000      -6.00000000      -6.00000000      -6.00000000      -6.00000000      -6.00000000      -6.00000000      -6.00000000      -6.00000000      -6.00000000      -6.00000000      -6.00000000      -6.00000000      -6.00000000      -6.00000000      -6.00000000      -6.00000000      -6.00000000      -6.00000000      -6.00000000      -6.00000000      -6.00000000      -6.00000000      -6.00000000      -6.00000000      -6.00000000      -6.00000000      -6.00000000      -6.00000000      -6.00000000      -6.00000000      -6.00000000      -5.98999977      -5.98999977      -5.98999977      -5.98999977      -5.98999977      -5.98999977      -5.98999977      -6.00000000      -6.00000000      -6.00000000      -6.00000000      -6.00000000      -6.00000000      -6.00000000      -6.00000000      -6.00000000      -6.00000000      -6.00000000      -6.00000000      -6.00000000      -6.00000000      -5.98999977      -5.98999977      -5.98999977      -5.98999977      -5.98999977      -5.98999977      -5.98999977      -5.98999977      -5.98999977      -5.98999977      -5.98999977      -5.98999977      -6.00000000      -6.00000000      -6.00000000      -6.00000000      -6.00000000      -6.00000000      -6.00000000      -6.00000000      -6.00000000      -6.00000000      -6.00000000      -6.00000000      -6.00000000      -6.00000000      -6.00000000      -6.00000000      -6.00000000      -6.00000000      -6.00000000      -6.00000000      -6.00000000      -6.00000000      -6.00000000      -6.00000000      -6.00000000      -6.00000000      -6.00000000      -6.00000000      -6.00000000      -6.00000000      -6.00000000      -6.00000000      -6.00000000      -6.00000000      -6.00000000      -6.00000000      -6.00000000      -6.00000000      -6.00000000      -6.00000000      -6.00000000      -6.00000000      -5.98999977      -5.98999977      -5.98999977      -5.98999977      -5.98999977      -5.98999977      -5.98999977      -5.98999977      -5.98999977      -5.98999977      -5.98999977      -5.98999977      -5.98999977      -5.98999977      -6.00000000      -6.00000000      -6.00000000      -6.00000000      -6.00000000      -6.00000000      -6.00000000      -6.00000000      -6.00000000      -6.00000000      -6.00000000      -6.00000000      -6.00000000      -6.00000000      -6.00000000      -6.00000000      -6.00000000      -6.00000000      -6.00000000      -6.00000000      -6.00000000      -6.00000000      -6.00000000      -6.00000000      -6.00000000      -6.00000000      -6.00000000      -6.00000000
        -6.00000000      -6.00000000      -6.00000000      -6.00000000      -6.00000000      -6.00000000      -6.00000000      -6.00000000      -6.00000000      -6.00000000      -6.00000000      -6.00000000      -6.00000000      -6.00000000      -6.00000000      -6.00000000      -6.00000000      -6.00000000      -6.00000000      -6.00000000      -6.00000000      -6.00000000      -6.00000000      -6.00000000      -6.00000000      -6.00000000      -6.00000000      -6.00000000      -6.00000000      -6.00000000      -6.00000000      -6.00000000      -6.00000000      -6.00000000      -6.00000000      -6.00000000      -6.00000000      -6.00000000      -6.00000000      -6.00000000      -6.00000000      -6.00000000      -6.00000000      -6.00000000      -6.00000000      -6.00000000      -6.00000000      -6.00000000      -6.00000000      -6.00000000      -6.00000000      -5.98999977      -5.98999977      -5.98999977      -5.98999977      -5.98999977      -5.98999977      -5.98999977      -6.00000000      -6.00000000      -6.00000000      -6.00000000      -6.00000000      -6.00000000      -6.00000000      -6.00000000      -6.00000000      -6.00000000      -6.00000000      -6.00000000      -6.00000000      -6.00000000      -5.98999977      -5.98999977      -5.98999977      -5.98999977      -5.98999977      -5.98999977      -5.98999977      -6.00000000      -6.00000000      -5.98999977      -5.98999977      -5.98999977      -6.00000000      -6.00000000      -6.00000000      -6.00000000      -6.00000000      -6.00000000      -6.00000000      -6.00000000      -6.00000000      -6.00000000      -6.00000000      -6.00000000      -6.00000000      -6.00000000      -6.00000000      -6.00000000      -6.00000000      -6.00000000      -6.00000000      -6.00000000      -6.00000000      -6.00000000      -6.00000000      -6.00000000      -6.00000000      -6.00000000      -6.00000000      -6.00000000      -6.00000000      -6.00000000      -6.00000000      -6.00000000      -6.00000000      -6.00000000      -6.00000000      -6.00000000      -6.00000000      -6.00000000      -6.00000000      -6.00000000      -6.00000000      -6.00000000      -5.98999977      -5.98999977      -5.98999977      -5.98999977      -5.98999977      -5.98999977      -5.98999977      -5.98999977      -5.98999977      -5.98999977      -5.98999977      -5.98999977      -5.98999977      -5.98999977      -6.00000000      -6.00000000      -6.00000000      -6.00000000      -6.00000000      -6.00000000      -6.00000000      -6.00000000      -6.00000000      -6.00000000      -6.00000000      -6.00000000      -6.00000000      -6.00000000      -6.00000000      -6.00000000      -6.00000000      -6.00000000      -6.00000000      -6.00000000      -6.00000000      -6.00000000      -6.00000000      -6.00000000      -6.00000000      -6.00000000      -6.00000000      -6.00000000
        -6.00000000      -6.00000000      -6.00000000      -6.00000000      -6.00000000      -6.00000000      -6.00000000      -6.00000000      -6.00000000      -6.00000000      -6.00000000      -6.00000000      -6.00000000      -6.00000000      -6.00000000      -6.00000000      -6.00000000      -6.00000000      -6.00000000      -6.00000000      -6.00000000      -6.00000000      -6.00000000      -6.00000000      -6.00000000      -6.00000000      -6.00000000      -6.00000000      -6.00000000      -6.00000000      -6.00000000      -6.00000000      -6.00000000      -6.00000000      -6.00000000      -6.00000000      -6.00000000      -6.00000000      -6.00000000      -6.00000000      -6.00000000      -6.00000000      -6.00000000      -6.00000000      -6.00000000      -6.00000000      -6.00000000      -6.00000000      -6.00000000      -6.00000000      -6.00000000      -5.98999977      -5.98999977      -5.98999977      -5.98999977      -5.98999977      -5.98999977      -5.98999977      -6.00000000      -6.00000000      -6.00000000      -6.00000000      -6.00000000      -6.00000000      -6.00000000      -6.00000000      -6.00000000      -6.00000000      -6.00000000      -6.00000000      -6.00000000      -6.00000000      -5.98999977      -5.98999977      -5.98999977      -5.98999977      -5.98999977      -5.98999977      -5.98999977      -6.00000000      -6.00000000      -6.00000000      -6.00000000      -6.00000000      -6.00000000      -6.00000000      -6.00000000      -6.00000000      -6.00000000      -6.00000000      -6.00000000      -6.00000000      -6.00000000      -6.00000000      -6.00000000      -6.00000000      -6.00000000      -6.00000000      -6.00000000      -6.00000000      -6.00000000      -6.00000000      -6.00000000      -6.00000000      -6.00000000      -6.00000000      -6.00000000      -6.00000000      -6.00000000      -6.00000000      -6.00000000      -6.00000000      -6.00000000      -6.00000000      -6.00000000      -6.00000000      -6.00000000      -6.00000000      -6.00000000      -6.00000000      -6.00000000      -6.00000000      -6.00000000      -6.00000000      -6.00000000      -6.00000000      -5.98999977      -5.98999977      -5.98999977      -5.98999977      -5.98999977      -5.98999977      -5.98999977      -5.98999977      -5.98999977      -5.98999977      -5.98999977      -5.98999977      -5.98999977      -5.98999977      -6.00000000      -6.00000000      -6.00000000      -6.00000000      -6.00000000      -6.00000000      -6.00000000      -6.00000000      -6.00000000      -6.00000000      -6.00000000      -6.00000000      -6.00000000      -6.00000000      -6.00000000      -6.00000000      -6.00000000      -6.00000000      -6.00000000      -6.00000000      -6.00000000      -6.00000000      -6.00000000      -6.00000000      -6.00000000      -6.00000000      -6.00000000      -6.00000000
        -6.00000000      -6.00000000      -6.00000000      -6.00000000      -6.00000000      -6.00000000      -6.00000000      -6.00000000      -6.00000000      -6.00000000      -6.00000000      -6.00000000      -6.00000000      -6.00000000      -6.00000000      -6.00000000      -6.00000000      -6.00000000      -6.00000000      -6.00000000      -6.00000000      -6.00000000      -6.00000000      -6.00000000      -6.00000000      -6.00000000      -6.00000000      -6.00000000      -6.00000000      -6.00000000      -6.00000000      -6.00000000      -6.00000000      -6.00000000      -6.00000000      -6.00000000      -6.00000000      -6.00000000      -6.00000000      -6.00000000      -6.00000000      -6.00000000      -6.00000000      -6.00000000      -6.00000000      -6.00000000      -6.00000000      -6.00000000      -6.00000000      -6.00000000      -6.00000000      -6.00000000      -5.98999977      -5.98999977      -5.98999977      -5.98999977      -5.98999977      -6.00000000      -6.00000000      -6.00000000      -6.00000000      -6.00000000      -6.00000000      -6.00000000      -6.00000000      -6.00000000      -6.00000000      -6.00000000      -6.00000000      -6.00000000      -6.00000000      -5.98999977      -5.98999977      -5.98999977      -5.98999977      -5.98999977      -5.98999977      -5.98999977      -6.00000000      -6.00000000      -6.00000000      -6.00000000      -6.00000000      -6.00000000      -6.00000000      -6.00000000      -6.00000000      -6.00000000      -6.00000000      -6.00000000      -6.00000000      -6.00000000      -6.00000000      -6.00000000      -6.00000000      -6.00000000      -6.00000000      -6.00000000      -6.00000000      -6.00000000      -6.00000000      -6.00000000      -6.00000000      -6.00000000      -6.00000000      -6.00000000      -6.00000000      -6.00000000      -6.00000000      -6.00000000      -6.00000000      -6.00000000      -6.00000000      -6.00000000      -6.00000000      -6.00000000      -6.00000000      -6.00000000      -6.00000000      -6.00000000      -6.00000000      -6.00000000      -6.00000000      -6.00000000      -6.00000000      -5.98999977      -5.98999977      -5.98999977      -5.98999977      -5.98999977      -5.98999977      -5.98999977      -5.98999977      -5.98999977      -5.98999977      -5.98999977      -5.98999977      -5.98999977      -5.98999977      -6.00000000      -6.00000000      -6.00000000      -6.00000000      -6.00000000      -6.00000000      -6.00000000      -6.00000000      -6.00000000      -6.00000000      -6.00000000      -6.00000000      -6.00000000      -6.00000000      -6.00000000      -6.00000000      -6.00000000      -6.00000000      -6.00000000      -6.00000000      -6.00000000      -6.00000000      -6.00000000      -6.00000000      -6.00000000      -6.00000000      -6.00000000      -6.00000000      -6.00000000
        -6.00000000      -6.00000000      -6.00000000      -6.00000000      -6.00000000      -6.00000000      -6.00000000      -6.00000000      -6.00000000      -6.00000000      -6.00000000      -6.00000000      -6.00000000      -6.00000000      -6.00000000      -6.00000000      -6.00000000      -6.00000000      -6.00000000      -6.00000000      -6.00000000      -6.00000000      -6.00000000      -6.00000000      -6.00000000      -6.00000000      -6.00000000      -6.00000000      -6.00000000      -6.00000000      -6.00000000      -6.00000000      -6.00000000      -6.00000000      -6.00000000      -6.00000000      -6.00000000      -6.00000000      -6.00000000      -6.00000000      -6.00000000      -6.00000000      -6.00000000      -6.00000000      -6.00000000      -6.00000000      -6.00000000      -6.00000000      -6.00000000      -6.00000000      -6.00000000      -6.00000000      -6.00000000      -6.00000000      -6.00000000      -6.00000000      -6.00000000      -6.00000000      -6.00000000      -6.00000000      -6.00000000      -6.00000000      -6.00000000      -6.00000000      -6.00000000      -6.00000000      -6.00000000      -6.00000000      -6.00000000      -6.00000000      -6.00000000      -5.98999977      -5.98999977      -5.98999977      -5.98999977      -5.98999977      -5.98999977      -5.98999977      -6.00000000      -6.00000000      -6.00000000      -6.00000000      -6.00000000      -6.00000000      -6.00000000      -6.00000000      -6.00000000      -6.00000000      -6.00000000      -6.00000000      -6.00000000      -6.00000000      -6.00000000      -6.00000000      -6.00000000      -6.00000000      -6.00000000      -6.00000000      -6.00000000      -6.00000000      -6.00000000      -6.00000000      -6.00000000      -6.00000000      -6.00000000      -6.00000000      -6.00000000      -6.00000000      -6.00000000      -6.00000000      -6.00000000      -6.00000000      -6.00000000      -6.00000000      -6.00000000      -6.00000000      -6.00000000      -6.00000000      -6.00000000      -6.00000000      -6.00000000      -6.00000000      -6.00000000      -6.00000000      -6.00000000      -5.98999977      -5.98999977      -5.98999977      -5.98999977      -5.98999977      -5.98999977      -5.98999977      -5.98999977      -5.98999977      -5.98999977      -5.98999977      -5.98999977      -5.98999977      -6.00000000      -6.00000000      -6.00000000      -6.00000000      -6.00000000      -6.00000000      -6.00000000      -6.00000000      -6.00000000      -6.00000000      -6.00000000      -6.00000000      -6.00000000      -6.00000000      -6.00000000      -6.00000000      -6.00000000      -6.00000000      -6.00000000      -6.00000000      -6.00000000      -6.00000000      -6.00000000      -6.00000000      -6.00000000      -6.00000000      -6.00000000      -6.00000000      -6.00000000      -6.00000000
        -6.00000000      -6.00000000      -6.00000000      -6.00000000      -6.00000000      -6.00000000      -6.00000000      -6.00000000      -6.00000000      -6.00000000      -6.00000000      -6.00000000      -6.00000000      -6.00000000      -6.00000000      -6.00000000      -6.00000000      -6.00000000      -6.00000000      -6.00000000      -6.00000000      -6.00000000      -6.00000000      -6.00000000      -6.00000000      -6.00000000      -6.00000000      -6.00000000      -6.00000000      -6.00000000      -6.00000000      -6.00000000      -6.00000000      -6.00000000      -6.00000000      -6.00000000      -6.00000000      -6.00000000      -6.00000000      -6.00000000      -6.00000000      -6.00000000      -6.00000000      -6.00000000      -6.00000000      -6.00000000      -6.00000000      -6.00000000      -6.00000000      -6.00000000      -6.00000000      -6.00000000      -6.00000000      -6.00000000      -6.00000000      -6.00000000      -6.00000000      -6.00000000      -6.00000000      -6.00000000      -6.00000000      -6.00000000      -6.00000000      -6.00000000      -6.00000000      -6.00000000      -6.00000000      -6.00000000      -6.00000000      -6.00000000      -6.00000000      -5.98999977      -5.98999977      -5.98999977      -5.98999977      -5.98999977      -6.00000000      -6.00000000      -6.00000000      -6.00000000      -6.00000000      -6.00000000      -6.00000000      -6.00000000      -6.00000000      -6.00000000      -6.00000000      -6.00000000      -6.00000000      -6.00000000      -6.00000000      -6.00000000      -6.00000000      -6.00000000      -6.00000000      -6.00000000      -6.00000000      -6.00000000      -6.00000000      -6.00000000      -6.00000000      -6.00000000      -6.00000000      -6.00000000      -6.00000000      -6.00000000      -6.00000000      -6.00000000      -6.00000000      -6.00000000      -6.00000000      -6.00000000      -6.00000000      -6.00000000      -6.00000000      -6.00000000      -6.00000000      -6.00000000      -6.00000000      -6.00000000      -6.00000000      -6.00000000      -6.00000000      -6.00000000      -5.98999977      -5.98999977      -5.98999977      -5.98999977      -5.98999977      -5.98999977      -5.98999977      -5.98999977      -5.98999977      -5.98999977      -5.98999977      -5.98999977      -5.98999977      -5.98999977      -6.00000000      -6.00000000      -6.00000000      -6.00000000      -6.00000000      -6.00000000      -6.00000000      -6.00000000      -6.00000000      -6.00000000      -6.00000000      -6.00000000      -6.00000000      -6.00000000      -6.00000000      -6.00000000      -6.00000000      -6.00000000      -6.00000000      -6.00000000      -6.00000000      -6.00000000      -6.00000000      -6.00000000      -6.00000000      -6.00000000      -6.00000000      -6.00000000      -6.00000000      -6.00000000
        -6.00000000      -6.00000000      -5.98999977      -5.98999977      -5.98999977      -5.98999977      -5.98999977      -5.98999977      -5.98999977      -6.00000000      -6.00000000      -6.00000000      -6.00000000      -6.00000000      -6.00000000      -6.00000000      -6.00000000      -6.00000000      -6.00000000      -6.00000000      -6.00000000      -6.00000000      -6.00000000      -6.00000000      -6.00000000      -6.00000000      -6.00000000      -6.00000000      -6.00000000      -6.00000000      -6.00000000      -6.00000000      -6.00000000      -6.00000000      -6.00000000      -6.00000000      -6.00000000      -6.00000000      -6.00000000      -6.00000000      -6.00000000      -6.00000000      -6.00000000      -6.00000000      -6.00000000      -6.00000000      -6.00000000      -6.00000000      -6.00000000      -6.00000000      -6.00000000      -6.00000000      -6.00000000      -6.00000000      -6.00000000      -6.00000000      -6.00000000      -6.00000000      -6.00000000      -6.00000000      -6.00000000      -6.00000000      -6.00000000      -6.00000000      -6.00000000      -6.00000000      -6.00000000      -6.00000000      -6.00000000      -6.00000000      -6.00000000      -6.00000000      -6.00000000      -6.00000000      -6.00000000      -6.00000000      -6.00000000      -6.00000000      -6.00000000      -6.00000000      -6.00000000      -6.00000000      -6.00000000      -6.00000000      -6.00000000      -6.00000000      -6.00000000      -6.00000000      -6.00000000      -6.00000000      -6.00000000      -6.00000000      -6.00000000      -6.00000000      -6.00000000      -6.00000000      -6.00000000      -6.00000000      -6.00000000      -6.00000000      -6.00000000      -6.00000000      -6.00000000      -6.00000000      -6.00000000      -6.00000000      -6.00000000      -6.00000000      -6.00000000      -6.00000000      -6.00000000      -6.00000000      -6.00000000      -6.00000000      -6.00000000      -6.00000000      -6.00000000      -6.00000000      -6.00000000      -6.00000000      -6.00000000      -6.00000000      -6.00000000      -6.00000000      -5.98999977      -5.98999977      -5.98999977      -5.98999977      -5.98999977      -5.98999977      -5.98999977      -5.98999977      -5.98999977      -5.98999977      -5.98999977      -5.98999977      -5.98999977      -5.98999977      -6.00000000      -6.00000000      -6.00000000      -6.00000000      -6.00000000      -6.00000000      -6.00000000      -6.00000000      -6.00000000      -6.00000000      -6.00000000      -6.00000000      -6.00000000      -6.00000000      -6.00000000      -6.00000000      -6.00000000      -6.00000000      -6.00000000      -6.00000000      -6.00000000      -6.00000000      -6.00000000      -6.00000000      -6.00000000      -6.00000000      -6.00000000      -6.00000000      -6.00000000      -6.00000000
        -5.98999977      -5.98999977      -5.98999977      -5.98999977      -5.98999977      -5.98999977      -5.98999977      -5.98999977      -5.98999977      -5.98999977      -6.00000000      -6.00000000      -6.00000000      -6.00000000      -6.00000000      -6.00000000      -6.00000000      -6.00000000      -6.00000000      -6.00000000      -6.00000000      -6.00000000      -6.00000000      -6.00000000      -6.00000000      -6.00000000      -6.00000000      -6.00000000      -6.00000000      -6.00000000      -6.00000000      -6.00000000      -6.00000000      -6.00000000      -6.00000000      -6.00000000      -6.00000000      -6.00000000      -6.00000000      -6.00000000      -6.00000000      -6.00000000      -6.00000000      -6.00000000      -6.00000000      -6.00000000      -6.00000000      -6.00000000      -6.00000000      -6.00000000      -6.00000000      -6.00000000      -6.00000000      -6.00000000      -6.00000000      -6.00000000      -6.00000000      -6.00000000      -6.00000000      -6.00000000      -6.00000000      -6.00000000      -6.00000000      -6.00000000      -6.00000000      -6.00000000      -6.00000000      -6.00000000      -6.00000000      -6.00000000      -6.00000000      -6.00000000      -6.00000000      -6.00000000      -6.00000000      -6.00000000      -6.00000000      -6.00000000      -6.00000000      -6.00000000      -6.00000000      -6.00000000      -6.00000000      -6.00000000      -6.00000000      -6.00000000      -6.00000000      -6.00000000      -6.00000000      -6.00000000      -6.00000000      -6.00000000      -6.00000000      -6.00000000      -6.00000000      -6.00000000      -6.00000000      -6.00000000      -6.00000000      -6.00000000      -6.00000000      -6.00000000      -6.00000000      -6.00000000      -6.00000000      -6.00000000      -6.00000000      -6.00000000      -6.00000000      -6.00000000      -6.00000000      -6.00000000      -6.00000000      -6.00000000      -6.00000000      -6.00000000      -6.00000000      -6.00000000      -6.00000000      -6.00000000      -6.00000000      -6.00000000      -6.00000000      -5.98999977      -5.98999977      -5.98999977      -5.98999977      -5.98999977      -5.98999977      -5.98999977      -5.98999977      -5.98999977      -5.98999977      -5.98999977      -5.98999977      -5.98999977      -5.98999977      -5.98999977      -6.00000000      -6.00000000      -6.00000000      -6.00000000      -6.00000000      -6.00000000      -6.00000000      -6.00000000      -6.00000000      -6.00000000      -6.00000000      -6.00000000      -6.00000000      -6.00000000      -6.00000000      -6.00000000      -6.00000000      -6.00000000      -6.00000000      -6.00000000      -6.00000000      -6.00000000      -6.00000000      -6.00000000      -6.00000000      -6.00000000      -6.00000000      -6.00000000      -6.00000000      -6.00000000
        -5.98999977      -5.98999977      -5.98999977      -5.98999977      -5.98999977      -5.98999977      -5.98999977      -5.98999977      -5.98999977      -5.98999977      -5.98999977      -6.00000000      -6.00000000      -6.00000000      -6.00000000      -6.00000000      -6.00000000      -6.00000000      -6.00000000      -6.00000000      -6.00000000      -6.00000000      -6.00000000      -6.00000000      -6.00000000      -6.00000000      -6.00000000      -6.00000000      -6.00000000      -6.00000000      -6.00000000      -6.00000000      -6.00000000      -6.00000000      -6.00000000      -6.00000000      -6.00000000      -6.00000000      -5.98999977      -5.98999977      -5.98999977      -6.00000000      -6.00000000      -6.00000000      -6.00000000      -6.00000000      -6.00000000      -6.00000000      -6.00000000      -6.00000000      -6.00000000      -6.00000000      -6.00000000      -6.00000000      -6.00000000      -6.00000000      -6.00000000      -6.00000000      -6.00000000      -6.00000000      -6.00000000      -6.00000000      -6.00000000      -6.00000000      -6.00000000      -6.00000000      -6.00000000      -6.00000000      -6.00000000      -6.00000000      -6.00000000      -6.00000000      -6.00000000      -6.00000000      -6.00000000      -6.00000000      -6.00000000      -6.00000000      -6.00000000      -6.00000000      -6.00000000      -6.00000000      -6.00000000      -6.00000000      -6.00000000      -6.00000000      -6.00000000      -6.00000000      -6.00000000      -6.00000000      -6.00000000      -6.00000000      -6.00000000      -6.00000000      -6.00000000      -6.00000000      -6.00000000      -6.00000000      -6.00000000      -6.00000000      -6.00000000      -6.00000000      -6.00000000      -6.00000000      -6.00000000      -6.00000000      -6.00000000      -6.00000000      -6.00000000      -6.00000000      -6.00000000      -6.00000000      -6.00000000      -6.00000000      -6.00000000      -6.00000000      -6.00000000      -6.00000000      -6.00000000      -6.00000000      -6.00000000      -6.00000000      -6.00000000      -5.98999977      -5.98999977      -5.98999977      -5.98999977      -5.98999977      -5.98999977      -5.98999977      -5.98999977      -5.98999977      -5.98999977      -5.98999977      -5.98999977      -5.98999977      -5.98999977      -5.98999977      -6.00000000      -6.00000000      -6.00000000      -6.00000000      -6.00000000      -6.00000000      -6.00000000      -6.00000000      -6.00000000      -6.00000000      -6.00000000      -6.00000000      -6.00000000      -6.00000000      -6.00000000      -6.00000000      -6.00000000      -6.00000000      -6.00000000      -6.00000000      -6.00000000      -6.00000000      -6.00000000      -6.00000000      -6.00000000      -6.00000000      -6.00000000      -6.00000000      -6.00000000      -6.00000000