# File generated by Flopy version 3.8.2 on 01/24/2025 at 09:12:50.
BEGIN options
  SAVE_FLOWS
  SAVE_SPECIFIC_DISCHARGE
  SAVE_SATURATION
END options

BEGIN griddata
  icelltype
    CONSTANT  0
  k  LAYERED
    INTERNAL  FACTOR  1.0
      6.45199190E-07  8.05692674E-07  7.64957714E-07  5.78273275E-07  3.73682374E-07  3.04338874E-07  3.19408077E-07  3.27789081E-07  2.90441686E-07  3.04178858E-07  3.68272072E-07  4.54707887E-07  5.92444103E-07  6.62777476E-07  6.70390422E-07  7.25539447E-07  7.91929296E-07  8.45312346E-07  9.09621829E-07  1.19220562E-06  1.69929009E-06  2.31753592E-06  2.65598907E-06  3.07325374E-06  3.77776332E-06  5.33014385E-06  7.67099911E-06  1.22334841E-05  1.87294418E-05  2.11536857E-05  2.07584508E-05  1.83132895E-05  1.60806146E-05  1.50385856E-05  1.41077867E-05  1.36736896E-05  1.21459144E-05  8.31327502E-06  5.90711813E-06  3.58978151E-06  1.98926747E-06  1.17508508E-06  7.87125993E-07  5.36221090E-07  3.37142817E-07  2.43992405E-07  1.98117212E-07  1.53986397E-07  1.14831862E-07  1.13027353E-07  1.31890643E-07  9.82724246E-07  9.82724246E-07  9.82724246E-07  9.82724246E-07  9.82724246E-07  9.82724246E-07  9.82724246E-07  7.20782607E-07  5.42886776E-07  3.72101606E-07  2.68723442E-07  1.72515392E-07  1.21236775E-07  1.07112577E-07  9.83210922E-08  9.30763124E-08  1.00592008E-07  1.05580774E-07  1.35989788E-07  1.97977393E-07  2.99118607E-07  9.82724246E-07  9.82724246E-07  9.82724246E-07  9.82724246E-07  9.82724246E-07  9.82724246E-07  9.82724246E-07  9.82724246E-07  9.82724246E-07  9.82724246E-07  9.82724246E-07  9.82724246E-07  9.82724246E-07  4.36777941E-07  3.35128110E-07  3.08054412E-07  2.94132203E-07  2.75925959E-07  2.70193537E-07  2.86334013E-07  2.85263972E-07  2.95613393E-07  3.57520425E-07  3.92602134E-07  4.34353784E-07  4.99856000E-07  6.95506018E-07  1.10041826E-06  1.68548211E-06  2.75102546E-06  3.11584647E-06  2.82660328E-06  2.13449508E-06  1.41468128E-06  8.85310050E-07  5.88424184E-07  4.56038835E-07  3.80670933E-07  3.30153102E-07  3.39320862E-07  3.60372967E-07  3.37199087E-07  3.05702585E-07  2.75578083E-07  2.70464822E-07  2.62257762E-07  2.92851616E-07  3.32896922E-07  3.40679320E-07  3.81769663E-07  4.07603213E-07  4.59870767E-07  5.28821423E-07  9.82724246E-07  9.82724246E-07  9.82724246E-07  9.82724246E-07  9.82724246E-07  9.82724246E-07  9.82724246E-07  9.82724246E-07  9.82724246E-07  9.82724246E-07  9.82724246E-07  9.82724246E-07  9.82724246E-07  9.82724246E-07  9.82724246E-07  9.82724246E-07  9.82724246E-07  9.82724246E-07  1.00125026E-06  1.03614021E-06  1.25665615E-06  1.80165446E-06  2.43581803E-06  3.05235718E-06  4.05633034E-06  4.31841128E-06  4.38476012E-06  3.72878665E-06  3.58460227E-06  3.30246276E-06  2.64559584E-06  2.52863921E-06  2.40146618E-06  2.16073685E-06  1.67699086E-06  1.52698256E-06  1.30298868E-06  1.19221086E-06  1.00850783E-06  1.04852863E-06  1.09604118E-06  1.07790354E-06  1.01489940E-06
      8.48276369E-07  9.62069113E-07  9.05153551E-07  7.05386747E-07  5.12313825E-07  4.22638844E-07  4.08025005E-07  4.27574664E-07  3.79429529E-07  3.60574421E-07  4.03687005E-07  4.55648447E-07  4.64464590E-07  5.63721113E-07  5.83481983E-07  7.01318536E-07  7.52545139E-07  8.65582189E-07  8.51648099E-07  1.14363297E-06  1.81068349E-06  2.56814940E-06  2.94076339E-06  3.44475997E-06  4.23312702E-06  6.59414593E-06  1.12742532E-05  1.65136311E-05  2.31218073E-05  2.74116008E-05  2.51188423E-05  2.47772431E-05  2.16763967E-05  2.08869832E-05  2.01912804E-05  1.92358763E-05  1.53940586E-05  1.00538345E-05  6.46401758E-06  4.29360921E-06  2.32420971E-06  1.07407348E-06  6.80863832E-07  4.69420655E-07  2.77272537E-07  2.03543468E-07  1.66260269E-07  1.22580218E-07  9.92147653E-08  9.43049549E-08  1.11877627E-07  9.82724246E-07  9.82724246E-07  9.82724246E-07  9.82724246E-07  9.82724246E-07  9.82724246E-07  9.82724246E-07  7.85040777E-07  5.76104023E-07  4.30711775E-07  3.66276786E-07  2.64104800E-07  1.78948468E-07  1.26888193E-07  1.22813142E-07  1.14277818E-07  1.14384520E-07  1.35961273E-07  1.72415410E-07  2.54866050E-07  3.74171346E-07  9.82724246E-07  9.82724246E-07  9.82724246E-07  9.82724246E-07  9.82724246E-07  9.82724246E-07  9.82724246E-07  9.82724246E-07  9.82724246E-07  9.82724246E-07  9.82724246E-07  9.82724246E-07  9.82724246E-07  6.55877192E-07  4.63477842E-07  4.21030303E-07  3.76186093E-07  4.01334124E-07  4.21939188E-07  4.69913124E-07  4.45848272E-07  4.34243633E-07  4.96419080E-07  5.71263418E-07  5.84441808E-07  6.32833642E-07  7.63370288E-07  1.10465150E-06  9.82724246E-07  3.06210171E-06  3.53125280E-06  3.58014584E-06  2.83553991E-06  1.85220575E-06  9.82681018E-07  6.85984340E-07  4.81613054E-07  3.37086556E-07  2.64105090E-07  2.51759137E-07  9.82724246E-07  9.82724246E-07  1.91082919E-07  1.76043217E-07  1.95247945E-07  2.40058041E-07  2.82624950E-07  3.06498771E-07  3.27553072E-07  3.64055601E-07  4.09790777E-07  4.61622629E-07  5.73343305E-07  9.82724246E-07  9.82724246E-07  9.82724246E-07  9.82724246E-07  9.82724246E-07  9.82724246E-07  9.82724246E-07  9.82724246E-07  9.82724246E-07  9.82724246E-07  9.82724246E-07  9.82724246E-07  9.82724246E-07  9.82724246E-07  9.82724246E-07  9.82724246E-07  9.82724246E-07  8.11786730E-07  8.13581131E-07  9.45185984E-07  1.20792462E-06  1.66425921E-06  2.35095562E-06  3.15821797E-06  3.75894190E-06  3.65524722E-06  4.24692087E-06  4.11420066E-06  4.25251542E-06  3.85527003E-06  3.18628029E-06  3.28886084E-06  3.01415150E-06  2.77179092E-06  2.30319103E-06  1.85935353E-06  1.46072648E-06  1.25333396E-06  1.13297964E-06  9.82724246E-07  9.82724246E-07  9.82724246E-07  9.82724246E-07
      1.10345991E-06  1.15608739E-06  1.01141647E-06  8.76958131E-07  6.67197657E-07  5.56002387E-07  4.74105711E-07  4.69521169E-07  4.24688823E-07  4.29746716E-07  4.24580191E-07  5.02598822E-07  4.55191917E-07  5.71758512E-07  6.14835919E-07  7.09292405E-07  7.03058623E-07  7.70307969E-07  8.53610271E-07  1.10133205E-06  1.76005530E-06  2.63382589E-06  3.34757415E-06  4.62939761E-06  5.73884306E-06  8.59432417E-06  1.43934841E-05  1.99695514E-05  2.65648195E-05  2.85079865E-05  2.69616259E-05  2.89400458E-05  2.66490414E-05  2.48639861E-05  2.52381853E-05  2.39320905E-05  1.86681378E-05  1.25986403E-05  7.56732680E-06  4.79534117E-06  2.28665663E-06  1.07884838E-06  6.61171930E-07  4.12189163E-07  2.58230946E-07  1.83768580E-07  1.54795489E-07  1.20502230E-07  9.66026781E-08  8.20668721E-08  8.82558619E-08  9.82724246E-07  9.82724246E-07  9.82724246E-07  9.82724246E-07  9.82724246E-07  9.82724246E-07  9.82724246E-07  9.82724246E-07  5.97207089E-07  4.65295552E-07  3.85108171E-07  3.22815608E-07  2.48065323E-07  1.75002165E-07  1.66845813E-07  1.47466072E-07  1.42692081E-07  1.50924606E-07  2.01543582E-07  3.13606875E-07  9.82724246E-07  9.82724246E-07  9.82724246E-07  9.82724246E-07  9.82724246E-07  9.82724246E-07  9.82724246E-07  9.82724246E-07  9.82724246E-07  9.82724246E-07  9.82724246E-07  9.82724246E-07  9.82724246E-07  9.82724246E-07  9.82724246E-07  7.56211079E-07  6.58272372E-07  5.59412495E-07  6.50487713E-07  7.06110487E-07  6.91715005E-07  6.20794369E-07  5.77116973E-07  5.99076154E-07  7.78844723E-07  7.93216339E-07  7.90648681E-07  9.07263901E-07  1.12475470E-06  9.82724246E-07  3.13561082E-06  4.12231253E-06  4.33295874E-06  3.71486835E-06  2.67315931E-06  1.51146654E-06  9.09898519E-07  5.41050426E-07  3.18884916E-07  2.16786102E-07  9.82724246E-07  9.82724246E-07  9.82724246E-07  9.82724246E-07  1.09111350E-07  1.39048575E-07  2.07364455E-07  2.68972577E-07  3.21330749E-07  3.18131643E-07  3.51142270E-07  4.73155103E-07  5.59504634E-07  6.82410793E-07  9.82724246E-07  9.82724246E-07  9.82724246E-07  9.82724246E-07  9.82724246E-07  9.82724246E-07  9.82724246E-07  9.82724246E-07  9.82724246E-07  9.82724246E-07  9.82724246E-07  9.82724246E-07  9.82724246E-07  9.82724246E-07  9.82724246E-07  1.32686013E-06  1.01820315E-06  7.09614891E-07  7.03869615E-07  7.77040762E-07  9.34599191E-07  1.25048728E-06  1.66079828E-06  2.31306944E-06  3.14652614E-06  3.52246646E-06  4.15060241E-06  4.63652930E-06  4.70317282E-06  4.16054898E-06  3.65943550E-06  3.30244463E-06  3.34981328E-06  2.65265508E-06  2.47460322E-06  2.14444799E-06  1.80835896E-06  1.59623689E-06  1.39481608E-06  9.82724246E-07  9.82724246E-07  9.82724246E-07  9.82724246E-07
      1.14327767E-06  1.14550166E-06  1.10630344E-06  1.01394488E-06  8.27575412E-07  7.04195048E-07  5.73034929E-07  5.09200329E-07  4.69022416E-07  4.87829105E-07  5.02016424E-07  5.86462132E-07  5.44489577E-07  5.69029863E-07  6.85127002E-07  7.87393086E-07  8.02986762E-07  8.97715716E-07  9.47412554E-07  1.02839017E-06  1.72302622E-06  2.80640995E-06  3.87302558E-06  5.23792895E-06  7.51029648E-06  1.18947035E-05  1.70263307E-05  2.36452555E-05  2.55096176E-05  2.70406030E-05  2.69162240E-05  2.75531188E-05  2.97045613E-05  2.70034870E-05  2.75497913E-05  2.80540254E-05  2.05976870E-05  1.43908135E-05  8.12706189E-06  5.00725539E-06  2.67221440E-06  1.24936605E-06  7.41950884E-07  4.36651834E-07  2.54244742E-07  1.78821785E-07  1.46412731E-07  1.16996388E-07  8.69797822E-08  7.32219330E-08  7.33052692E-08  9.82724246E-07  9.82724246E-07  9.82724246E-07  9.82724246E-07  9.82724246E-07  9.82724246E-07  9.82724246E-07  9.82724246E-07  6.02229175E-07  5.12365577E-07  4.91755353E-07  4.31010754E-07  3.24333680E-07  2.26395327E-07  2.07880101E-07  1.97017210E-07  1.92184390E-07  2.26220399E-07  2.67461254E-07  3.47293091E-07  9.82724246E-07  9.82724246E-07  9.82724246E-07  9.82724246E-07  9.82724246E-07  9.82724246E-07  9.82724246E-07  9.82724246E-07  9.82724246E-07  9.82724246E-07  9.82724246E-07  9.82724246E-07  9.82724246E-07  9.82724246E-07  9.82724246E-07  1.12038660E-06  9.67176155E-07  9.76235070E-07  1.27133908E-06  1.31460102E-06  1.16516432E-06  9.59522553E-07  7.38600562E-07  7.44864824E-07  9.82822370E-07  1.02209991E-06  1.08084498E-06  9.95384984E-07  1.18296220E-06  1.57490434E-06  2.31668365E-06  3.58256807E-06  4.15899611E-06  3.99815008E-06  3.04654811E-06  1.95491841E-06  1.10040255E-06  6.88105561E-07  3.59964071E-07  2.40260287E-07  9.82724246E-07  9.82724246E-07  1.06359740E-07  8.43150744E-08  7.32870816E-08  1.04316724E-07  1.54876241E-07  2.13253206E-07  2.72679953E-07  3.17222333E-07  3.78472147E-07  5.13938079E-07  5.95927208E-07  6.62482822E-07  9.82724246E-07  9.82724246E-07  9.82724246E-07  9.82724246E-07  9.82724246E-07  9.82724246E-07  9.82724246E-07  9.82724246E-07  9.82724246E-07  9.82724246E-07  9.82724246E-07  9.82724246E-07  9.82724246E-07  9.82724246E-07  9.82724246E-07  1.29863970E-06  1.00288079E-06  7.07923088E-07  5.80511879E-07  6.39002290E-07  8.12842725E-07  1.10222844E-06  1.46676607E-06  2.08168573E-06  2.80521157E-06  3.36602804E-06  4.00376858E-06  4.73713900E-06  4.71072849E-06  4.22528417E-06  3.78031924E-06  3.36112734E-06  3.24875055E-06  2.79856972E-06  2.44869723E-06  2.50398138E-06  2.21452774E-06  2.19529622E-06  2.00115174E-06  9.82724246E-07  9.82724246E-07  9.82724246E-07  9.82724246E-07
      1.18834773E-06  1.07379520E-06  1.14308940E-06  1.08276086E-06  9.33442409E-07  7.69857307E-07  6.30810080E-07  5.63508237E-07  5.28435449E-07  5.30625588E-07  5.76502660E-07  6.37513133E-07  6.24199436E-07  6.30508869E-07  6.71721066E-07  7.42016872E-07  8.01499042E-07  8.34315769E-07  9.43118925E-07  9.69090563E-07  1.48302767E-06  2.79252915E-06  4.04892174E-06  5.97681354E-06  8.84468669E-06  1.28540017E-05  2.05078966E-05  2.57785343E-05  2.27757360E-05  2.45102125E-05  2.40977296E-05  2.32437558E-05  2.48113537E-05  2.49573071E-05  2.85419052E-05  3.19421754E-05  2.41079712E-05  1.45385111E-05  8.88378231E-06  5.30453748E-06  2.96031086E-06  1.53939064E-06  8.45653962E-07  4.33103717E-07  2.67376399E-07  1.90923956E-07  1.47988675E-07  1.21029164E-07  9.29957163E-08  7.48900259E-08  7.29571909E-08  9.82724246E-07  9.82724246E-07  9.82724246E-07  9.82724246E-07  9.82724246E-07  9.82724246E-07  9.82724246E-07  9.82724246E-07  5.91163395E-07  5.48287001E-07  5.76243831E-07  5.38396205E-07  4.07639464E-07  3.18111734E-07  2.55779657E-07  2.61003590E-07  2.95583534E-07  3.59150827E-07  4.04044851E-07  3.78564825E-07  9.82724246E-07  9.82724246E-07  9.82724246E-07  9.82724246E-07  9.82724246E-07  9.82724246E-07  9.82724246E-07  9.82724246E-07  1.29369998E-06  1.51212219E-06  1.60782312E-06  1.87027480E-06  1.85158966E-06  9.82724246E-07  9.82724246E-07  1.41440638E-06  1.45601726E-06  1.59390938E-06  2.17625800E-06  2.28466404E-06  1.77609008E-06  1.36090013E-06  8.82390027E-07  8.37015127E-07  9.94826674E-07  1.08658253E-06  1.21038201E-06  1.22964665E-06  1.20899140E-06  1.42512963E-06  2.07772854E-06  2.94722815E-06  3.34842697E-06  3.64740161E-06  2.94494770E-06  2.44412556E-06  1.55594823E-06  8.82730151E-07  4.86813565E-07  2.99783738E-07  1.90090210E-07  1.24259430E-07  9.82128755E-08  7.39045909E-08  6.95405225E-08  7.43741972E-08  1.07414778E-07  1.64142096E-07  2.24733534E-07  2.91430018E-07  4.27201138E-07  6.03535181E-07  6.59847693E-07  7.19306597E-07  9.82724246E-07  9.82724246E-07  9.82724246E-07  9.82724246E-07  9.82724246E-07  9.82724246E-07  9.82724246E-07  9.82724246E-07  9.82724246E-07  9.82724246E-07  9.82724246E-07  9.82724246E-07  9.82724246E-07  9.82724246E-07  9.82724246E-07  1.01778512E-06  7.73793621E-07  5.76176137E-07  5.08292633E-07  5.33956262E-07  6.53807224E-07  7.68238627E-07  1.07878087E-06  1.63454016E-06  2.19681285E-06  2.79684953E-06  3.30462454E-06  4.01040320E-06  4.33890958E-06  3.98760654E-06  4.15372069E-06  3.89793094E-06  3.89827762E-06  2.99816984E-06  2.67773892E-06  2.87951347E-06  2.67979480E-06  2.47616327E-06  9.82724246E-07  9.82724246E-07  9.82724246E-07  9.82724246E-07  9.82724246E-07
      1.06701515E-06  1.08635230E-06  1.14308187E-06  1.11537396E-06  9.53629449E-07  7.13155479E-07  6.79906881E-07  6.64943008E-07  7.45173209E-07  6.41028905E-07  5.78552707E-07  6.28222297E-07  6.01175448E-07  5.55841858E-07  6.10890731E-07  5.95704787E-07  6.12175190E-07  6.80194347E-07  8.11505126E-07  8.52257986E-07  1.23182223E-06  2.08092019E-06  3.28769468E-06  4.88582763E-06  7.52697186E-06  1.16771291E-05  1.61823680E-05  2.08035593E-05  2.25124970E-05  2.16726605E-05  2.18216553E-05  1.93995959E-05  1.95686618E-05  2.03066446E-05  2.30701776E-05  2.69025149E-05  2.37986642E-05  1.63144014E-05  9.82724246E-07  9.82724246E-07  2.85872871E-06  1.35809242E-06  8.04065739E-07  4.89935396E-07  3.11140908E-07  2.02150820E-07  1.37822277E-07  1.11345661E-07  8.98040055E-08  8.72467320E-08  8.40786013E-08  9.82724246E-07  9.82724246E-07  9.82724246E-07  1.71880320E-07  9.82724246E-07  9.82724246E-07  9.82724246E-07  9.82724246E-07  9.82724246E-07  5.72668241E-07  6.34393358E-07  5.62885542E-07  4.72461554E-07  3.59068027E-07  3.24158524E-07  3.49892268E-07  4.44017311E-07  4.95077898E-07  5.25638769E-07  5.16952820E-07  9.82724246E-07  9.82724246E-07  9.82724246E-07  9.82724246E-07  9.82724246E-07  9.82724246E-07  9.82724246E-07  1.36073578E-06  1.45209468E-06  1.57172759E-06  1.74955865E-06  1.94563579E-06  1.85810048E-06  1.69059192E-06  1.36246098E-06  1.45914917E-06  1.88055187E-06  2.23411414E-06  2.95610796E-06  3.27959357E-06  2.44308456E-06  1.68397641E-06  9.82551554E-07  8.54411978E-07  8.83364236E-07  1.00571798E-06  1.13799768E-06  1.15515354E-06  1.11389069E-06  1.28426738E-06  1.71758452E-06  2.73050251E-06  3.35077336E-06  4.34989482E-06  3.42902424E-06  2.91236815E-06  1.82600628E-06  1.09394684E-06  5.74264383E-07  3.58371683E-07  2.49417476E-07  1.45621550E-07  1.00540222E-07  7.92641741E-08  8.03763868E-08  7.88041747E-08  1.05984377E-07  1.47581884E-07  2.04760601E-07  2.92491072E-07  4.71857087E-07  6.77744702E-07  9.21576563E-07  9.82724246E-07  9.82724246E-07  9.82724246E-07  9.82724246E-07  9.82724246E-07  9.82724246E-07  9.82724246E-07  9.82724246E-07  9.82724246E-07  9.82724246E-07  9.82724246E-07  9.82724246E-07  9.82724246E-07  9.82724246E-07  9.82724246E-07  1.12892041E-06  7.58193079E-07  5.62398131E-07  4.68537054E-07  4.35617980E-07  4.24077956E-07  4.74117684E-07  6.08318536E-07  9.33445484E-07  1.33679196E-06  1.83449455E-06  2.26423915E-06  2.79886164E-06  3.13510478E-06  3.80373462E-06  3.95967542E-06  4.33391033E-06  4.40401124E-06  4.07995887E-06  3.14341840E-06  2.83767021E-06  2.57549963E-06  2.58707710E-06  2.43034162E-06  9.82724246E-07  9.82724246E-07  9.82724246E-07  9.82724246E-07  9.82724246E-07
      9.38354217E-07  1.00340506E-06  8.69878046E-07  8.79213162E-07  7.90184385E-07  9.82724246E-07  9.82724246E-07  9.82724246E-07  8.88306054E-07  8.13733002E-07  6.74538390E-07  5.59500948E-07  5.50370848E-07  5.37486624E-07  4.70752283E-07  4.29394393E-07  4.80658476E-07  5.46839910E-07  5.97897293E-07  6.95520527E-07  9.73583667E-07  1.71265825E-06  2.82188061E-06  4.42685478E-06  6.77105048E-06  9.29472289E-06  1.20854945E-05  1.54239026E-05  1.86047465E-05  1.77194322E-05  1.69199207E-05  1.58156362E-05  1.47705571E-05  1.66763031E-05  1.72847187E-05  1.81990162E-05  1.69541934E-05  9.82724246E-07  9.82724246E-07  9.82724246E-07  2.24183959E-06  1.20664017E-06  7.56222703E-07  4.44866882E-07  3.09040578E-07  1.90516667E-07  1.31610299E-07  1.05759099E-07  1.03186585E-07  1.12180215E-07  1.28482730E-07  1.28742700E-07  1.40620578E-07  1.87559059E-07  2.13765657E-07  2.22461689E-07  2.74318936E-07  3.55155363E-07  9.82724246E-07  9.82724246E-07  9.82724246E-07  7.19914186E-07  6.95616754E-07  5.15724875E-07  3.53146993E-07  3.50314338E-07  4.08319444E-07  5.13967423E-07  6.25334713E-07  5.97654450E-07  9.82724246E-07  9.82724246E-07  9.82724246E-07  9.82724246E-07  9.82724246E-07  9.82724246E-07  9.82724246E-07  1.49191705E-06  1.44916406E-06  1.44343940E-06  1.51654823E-06  1.66313764E-06  2.06342659E-06  2.10553213E-06  1.79672772E-06  1.73518025E-06  1.77718051E-06  2.30066108E-06  3.06193697E-06  3.60336962E-06  4.02407654E-06  3.15405614E-06  2.17353336E-06  1.23956240E-06  1.01075261E-06  9.26538846E-07  1.01215632E-06  8.89076894E-07  9.53221189E-07  9.69930440E-07  1.10847498E-06  1.45943918E-06  2.28005813E-06  3.22019461E-06  4.45638806E-06  4.01384361E-06  3.95988846E-06  2.65456637E-06  1.57184667E-06  7.52627770E-07  4.15980901E-07  2.99594208E-07  2.12407057E-07  1.39184517E-07  1.04784041E-07  1.07672424E-07  8.91898586E-08  1.12835782E-07  1.50846578E-07  2.18051776E-07  3.23795341E-07  5.26604615E-07  8.17367587E-07  1.24519057E-06  9.82724246E-07  9.82724246E-07  9.82724246E-07  9.82724246E-07  9.82724246E-07  9.82724246E-07  9.82724246E-07  9.82724246E-07  9.82724246E-07  9.82724246E-07  9.82724246E-07  9.82724246E-07  9.82724246E-07  9.82724246E-07  9.82724246E-07  1.09179657E-06  7.96759285E-07  5.38688305E-07  4.13601321E-07  3.67014278E-07  3.17237658E-07  3.71916170E-07  5.20902954E-07  7.79028600E-07  1.15245899E-06  1.57686819E-06  2.10226580E-06  2.39870976E-06  2.44734794E-06  3.12293613E-06  3.70489693E-06  4.21612708E-06  4.35096000E-06  3.75182928E-06  2.87585784E-06  2.41922118E-06  2.29615906E-06  2.35680166E-06  2.42131517E-06  2.75167193E-06  9.82724246E-07  9.82724246E-07  9.82724246E-07  9.82724246E-07
      6.84896103E-07  9.82724246E-07  9.82724246E-07  9.82724246E-07  9.82724246E-07  9.82724246E-07  9.82724246E-07  9.82724246E-07  9.82724246E-07  9.82724246E-07  8.07559606E-07  5.48655547E-07  4.79015261E-07  4.26638181E-07  3.44387127E-07  3.21292295E-07  3.60799360E-07  3.76946849E-07  4.41682437E-07  9.82724246E-07  9.82724246E-07  9.82724246E-07  9.82724246E-07  9.82724246E-07  5.53051919E-06  6.51716596E-06  7.93077004E-06  9.47871401E-06  1.23055695E-05  1.10817076E-05  1.10719659E-05  1.09909365E-05  1.08830303E-05  1.09945091E-05  1.19840405E-05  1.25380468E-05  1.19056135E-05  9.82724246E-07  9.82724246E-07  9.82724246E-07  9.82724246E-07  1.00128214E-06  6.72318724E-07  4.66063519E-07  3.17512597E-07  2.18879072E-07  1.79289289E-07  1.43725755E-07  1.36717530E-07  1.56517503E-07  1.91771675E-07  1.79435412E-07  2.16229133E-07  2.83442557E-07  3.13387271E-07  3.28035344E-07  3.77194840E-07  4.67159884E-07  5.54122282E-07  9.82724246E-07  9.82724246E-07  7.72415111E-07  6.65718805E-07  4.93507289E-07  4.01306805E-07  3.99828178E-07  4.56977131E-07  5.40101372E-07  9.82724246E-07  9.82724246E-07  9.82724246E-07  9.82724246E-07  9.82724246E-07  9.82724246E-07  9.87400822E-07  1.12406335E-06  1.42327819E-06  1.41041316E-06  1.31762403E-06  1.34646693E-06  1.51615366E-06  1.74012354E-06  2.27783618E-06  2.58458150E-06  2.17227606E-06  2.04226455E-06  2.38994774E-06  3.11897489E-06  3.90676153E-06  3.95633356E-06  3.97744451E-06  3.24994214E-06  2.44989393E-06  1.51479922E-06  1.12712703E-06  9.52636320E-07  8.61311330E-07  8.43961160E-07  9.57223381E-07  1.11151204E-06  1.30370276E-06  1.60505219E-06  2.09266261E-06  2.78600603E-06  3.98927061E-06  4.98922779E-06  4.70361178E-06  3.30666067E-06  1.96265649E-06  9.87327104E-07  5.59317300E-07  3.86815962E-07  2.57058397E-07  1.88429281E-07  1.35744095E-07  1.25565071E-07  1.09113387E-07  1.35834594E-07  1.85464977E-07  2.48051161E-07  4.04248082E-07  6.01078427E-07  1.01879807E-06  9.82724246E-07  9.82724246E-07  9.82724246E-07  9.82724246E-07  9.82724246E-07  9.82724246E-07  9.82724246E-07  9.82724246E-07  9.82724246E-07  9.82724246E-07  9.82724246E-07  9.82724246E-07  9.82724246E-07  9.82724246E-07  9.82724246E-07  9.82724246E-07  1.20462677E-06  7.76972513E-07  5.18842945E-07  4.11913190E-07  3.45714241E-07  2.74058529E-07  3.06614557E-07  4.04931741E-07  6.51429721E-07  9.63699326E-07  1.25136492E-06  1.76698327E-06  2.13283647E-06  2.30883211E-06  2.83946228E-06  3.60197330E-06  3.63773110E-06  3.62379855E-06  3.31406442E-06  2.69830668E-06  2.51515452E-06  2.04591832E-06  2.12785434E-06  2.45901342E-06  3.10845889E-06  9.82724246E-07  9.82724246E-07  9.82724246E-07  9.82724246E-07
      9.82724246E-07  9.82724246E-07  9.82724246E-07  9.82724246E-07  9.82724246E-07  9.82724246E-07  9.82724246E-07  9.82724246E-07  9.82724246E-07  9.82724246E-07  9.82724246E-07  7.03502622E-07  5.83830595E-07  4.54534680E-07  3.45351174E-07  2.76364380E-07  2.81008838E-07  9.82724246E-07  9.82724246E-07  9.82724246E-07  9.82724246E-07  9.82724246E-07  9.82724246E-07  9.82724246E-07  9.82724246E-07  4.13495071E-06  4.52990721E-06  6.05143600E-06  7.20313466E-06  7.85448581E-06  7.59167688E-06  7.52979879E-06  7.77281390E-06  8.54104333E-06  9.28606270E-06  8.73147717E-06  8.25693937E-06  9.82724246E-07  9.82724246E-07  9.82724246E-07  9.82724246E-07  9.82724246E-07  6.70905862E-07  5.13170101E-07  3.97957184E-07  2.77750300E-07  2.45715389E-07  2.13185783E-07  2.05430078E-07  2.28094200E-07  2.44224243E-07  2.67862402E-07  2.89022900E-07  3.69154605E-07  4.36776022E-07  4.33547138E-07  4.68942088E-07  4.97585760E-07  5.89262080E-07  9.82724246E-07  9.82724246E-07  7.53315610E-07  6.02015638E-07  4.51811018E-07  4.43191259E-07  4.62473387E-07  5.01905096E-07  5.16431465E-07  9.82724246E-07  9.82724246E-07  4.78629378E-07  4.44738928E-07  4.67922708E-07  5.18705673E-07  7.44198590E-07  8.80893491E-07  1.11735841E-06  1.17467358E-06  1.07494060E-06  1.08366712E-06  1.24829106E-06  1.54865528E-06  2.36612272E-06  2.89374404E-06  2.56402183E-06  2.71363127E-06  3.35384306E-06  4.29350078E-06  4.64910001E-06  4.04857500E-06  3.57410922E-06  3.05664994E-06  2.14229939E-06  1.69764530E-06  1.20432524E-06  9.95775223E-07  9.13067956E-07  8.36846047E-07  9.67721073E-07  1.13264134E-06  1.28220188E-06  1.65365105E-06  2.02588096E-06  2.46380770E-06  3.57672764E-06  4.63264162E-06  4.53384805E-06  3.34282143E-06  2.16408928E-06  1.42449136E-06  7.38917712E-07  4.59479621E-07  3.03709650E-07  2.36475402E-07  1.70254894E-07  1.40634165E-07  1.31922360E-07  1.59142800E-07  2.02623688E-07  3.00883466E-07  4.81966945E-07  7.81348310E-07  1.03801332E-06  9.82724246E-07  9.82724246E-07  9.82724246E-07  9.82724246E-07  9.82724246E-07  9.82724246E-07  9.82724246E-07  9.82724246E-07  9.82724246E-07  9.82724246E-07  9.82724246E-07  9.82724246E-07  9.82724246E-07  9.82724246E-07  9.82724246E-07  9.82724246E-07  1.09728982E-06  8.00644126E-07  5.11197919E-07  3.89950621E-07  3.39081018E-07  2.75829939E-07  2.58097156E-07  3.10120459E-07  5.04891934E-07  7.23003494E-07  9.85138681E-07  1.38811224E-06  1.73547367E-06  1.92202960E-06  2.54677513E-06  3.18392324E-06  3.35380623E-06  3.42681870E-06  2.93106707E-06  2.36600062E-06  2.07525029E-06  1.64259101E-06  1.79455903E-06  2.22845008E-06  3.12027648E-06  9.82724246E-07  9.82724246E-07  9.82724246E-07  9.82724246E-07
      9.82724246E-07  9.82724246E-07  9.82724246E-07  9.82724246E-07  9.82724246E-07  9.82724246E-07  9.82724246E-07  9.82724246E-07  9.82724246E-07  9.82724246E-07  9.82724246E-07  9.45976061E-07  7.29527853E-07  5.47633623E-07  9.82724246E-07  9.82724246E-07  9.82724246E-07  9.82724246E-07  9.82724246E-07  9.82724246E-07  9.82724246E-07  9.82724246E-07  9.82724246E-07  9.82724246E-07  9.82724246E-07  2.43064050E-06  2.45179103E-06  3.14008962E-06  3.93608223E-06  4.51647345E-06  5.33666727E-06  5.65183090E-06  6.87019993E-06  7.32111609E-06  7.11419303E-06  6.02313156E-06  9.82724246E-07  9.82724246E-07  9.82724246E-07  9.82724246E-07  9.82724246E-07  9.82724246E-07  7.22812207E-07  5.47628813E-07  4.39495416E-07  3.75327133E-07  3.35485218E-07  2.80359504E-07  2.55248588E-07  2.85556658E-07  2.81336385E-07  3.50090939E-07  4.00701852E-07  5.11343871E-07  6.26935830E-07  6.22879489E-07  5.78952402E-07  5.16655487E-07  6.61659215E-07  7.39965844E-07  8.00944826E-07  7.49395424E-07  6.08902568E-07  4.80422633E-07  4.33531430E-07  4.29800037E-07  4.26290279E-07  4.06443968E-07  3.53842120E-07  2.84475779E-07  2.56912239E-07  2.43683452E-07  2.63763140E-07  3.20366915E-07  4.77653966E-07  6.02944381E-07  8.39450357E-07  9.15792827E-07  9.37504626E-07  1.01419428E-06  1.17570196E-06  1.59902069E-06  2.66029098E-06  3.05359073E-06  3.29166420E-06  3.26351568E-06  4.18855855E-06  5.28587483E-06  4.89209193E-06  4.10729060E-06  3.31377698E-06  2.59122187E-06  1.81334347E-06  1.55476991E-06  1.24977216E-06  1.07442496E-06  9.78224332E-07  1.00128214E-06  1.03045516E-06  1.06900980E-06  1.18733046E-06  1.48310746E-06  2.07215835E-06  2.86497853E-06  4.12186447E-06  4.71499747E-06  4.36210027E-06  3.46088329E-06  2.46921582E-06  1.48406689E-06  8.60624092E-07  4.84015507E-07  3.71677771E-07  2.95437203E-07  2.27423514E-07  1.83035401E-07  1.66716897E-07  1.72276138E-07  2.16960643E-07  3.28999129E-07  5.30008386E-07  8.04431314E-07  1.06541018E-06  9.82724246E-07  9.82724246E-07  9.82724246E-07  9.82724246E-07  9.82724246E-07  9.82724246E-07  9.82724246E-07  9.82724246E-07  9.82724246E-07  9.82724246E-07  9.82724246E-07  9.82724246E-07  9.82724246E-07  9.82724246E-07  9.82724246E-07  1.18996543E-06  9.08516911E-07  6.50227793E-07  4.22091632E-07  3.39235184E-07  2.79220416E-07  2.49874951E-07  2.21135453E-07  2.59010969E-07  3.78886674E-07  5.37784135E-07  7.16532764E-07  1.05900859E-06  1.41893116E-06  1.86069936E-06  2.26668424E-06  2.85549447E-06  3.29539969E-06  3.54877051E-06  3.11684900E-06  2.43274438E-06  1.83516742E-06  1.37404352E-06  1.34781883E-06  1.65585852E-06  9.82724246E-07  9.82724246E-07  9.82724246E-07  9.82724246E-07  9.82724246E-07
      9.82724246E-07  9.82724246E-07  9.82724246E-07  9.82724246E-07  9.82724246E-07  9.82724246E-07  9.82724246E-07  9.82724246E-07  9.82724246E-07  9.82724246E-07  9.82724246E-07  9.82724246E-07  9.82724246E-07  9.82724246E-07  9.82724246E-07  9.82724246E-07  9.82724246E-07  9.82724246E-07  9.82724246E-07  9.82724246E-07  9.82724246E-07  9.82724246E-07  9.82724246E-07  9.82724246E-07  9.82724246E-07  9.82724246E-07  9.82724246E-07  9.82724246E-07  1.98654136E-06  2.65732793E-06  9.82724246E-07  9.82724246E-07  9.82724246E-07  9.82724246E-07  9.82724246E-07  9.82724246E-07  3.90610101E-06  9.82724246E-07  9.82724246E-07  9.82724246E-07  9.82724246E-07  9.82724246E-07  6.80534238E-07  5.71248992E-07  5.04500715E-07  4.79889642E-07  5.04680771E-07  4.90608268E-07  4.76322688E-07  4.50395968E-07  4.45050086E-07  5.14695905E-07  5.81528749E-07  7.01096036E-07  8.07076517E-07  8.85005855E-07  8.73538946E-07  8.01143596E-07  9.44038902E-07  1.00686041E-06  9.09852565E-07  7.41495645E-07  6.39421983E-07  5.18864023E-07  4.59618881E-07  4.22246449E-07  4.27055757E-07  3.33789588E-07  2.32620358E-07  1.74707855E-07  1.43824417E-07  1.36356243E-07  1.57279443E-07  1.88636282E-07  3.01955067E-07  4.18145474E-07  5.73100996E-07  7.68864754E-07  8.35264413E-07  8.26660007E-07  1.08304502E-06  1.70467195E-06  2.74575972E-06  3.56551375E-06  3.90960218E-06  4.43694695E-06  4.68698099E-06  5.17458224E-06  4.67711087E-06  3.99967803E-06  3.10375939E-06  2.39202690E-06  1.83398100E-06  1.58005012E-06  1.27996261E-06  1.14741750E-06  9.90557408E-07  1.03923123E-06  9.82256007E-07  8.70030874E-07  1.08115832E-06  1.36874335E-06  2.05070185E-06  3.24083079E-06  4.57694682E-06  5.59853058E-06  4.23746099E-06  3.42981873E-06  2.24250920E-06  1.48470414E-06  9.44992978E-07  6.16765574E-07  5.14251916E-07  4.17404216E-07  3.13035812E-07  2.41973388E-07  2.20973081E-07  2.05816137E-07  2.28273083E-07  3.62288355E-07  6.58792962E-07  9.87770578E-07  1.21310143E-06  9.82724246E-07  9.82724246E-07  9.82724246E-07  9.82724246E-07  9.82724246E-07  9.82724246E-07  9.82724246E-07  9.82724246E-07  9.82724246E-07  9.82724246E-07  9.82724246E-07  9.82724246E-07  9.82724246E-07  9.82724246E-07  9.82724246E-07  7.66369192E-07  6.40591980E-07  4.96985161E-07  3.44381455E-07  2.77543006E-07  2.26681864E-07  2.21596520E-07  2.18437090E-07  2.35973014E-07  3.04146464E-07  3.99526264E-07  5.73459146E-07  7.78237811E-07  1.33018296E-06  1.79807758E-06  2.05677434E-06  2.54621594E-06  3.13598955E-06  3.39040812E-06  3.30549183E-06  2.59046520E-06  1.86897334E-06  9.82724246E-07  9.82724246E-07  1.17426223E-06  1.84180248E-06  9.82724246E-07  9.82724246E-07  9.82724246E-07  9.82724246E-07