# File generated by Flopy version 3.8.2 on 01/22/2025 at 12:07:46.
BEGIN options
  SAVE_FLOWS
  SAVE_SPECIFIC_DISCHARGE
  SAVE_SATURATION
END options

BEGIN griddata
  icelltype
    CONSTANT  0
  k  LAYERED
    INTERNAL  FACTOR  1.0
      9.85712117E-05  8.86591144E-05  7.34953013E-05  5.11640394E-05  3.59787449E-05  4.01303721E-05  4.73632249E-05  5.36967553E-05  6.57337791E-05  7.72259080E-05  8.67095554E-05  8.83379755E-05  9.29917343E-05  8.53082775E-05  8.07576452E-05  8.72861119E-05  9.00470896E-05  9.85115967E-05  8.49612076E-05  8.46883250E-05  6.84778051E-05  5.35271692E-05  4.35333968E-05  3.45554854E-05  3.38597377E-05  3.56413993E-05  3.97073799E-05  3.91861839E-05  3.22588848E-05  2.52818670E-05  2.44486364E-05  2.52638582E-05  2.72382819E-05  2.94166760E-05  3.61068045E-05  4.80249649E-05  6.23501460E-05  8.13452509E-05  9.97050850E-05  1.01249755E-04  1.19977194E-04  1.32684047E-04  1.37288914E-04  1.39947178E-04  1.12661481E-04  8.93127433E-05  7.03830203E-05  5.77534700E-05  5.27417599E-05  5.33932812E-05  5.86454405E-05  9.98858871E-05  9.98858871E-05  9.98858871E-05  9.98858871E-05  9.98858871E-05  9.98858871E-05  9.98858871E-05  8.34374398E-05  7.01927885E-05  5.85335085E-05  4.78072131E-05  4.44150422E-05  5.17853237E-05  5.23476109E-05  4.83389358E-05  4.37386451E-05  4.94694283E-05  6.61051435E-05  8.81922208E-05  1.08724068E-04  1.13565546E-04  9.98858871E-05  9.98858871E-05  9.98858871E-05  9.98858871E-05  9.98858871E-05  9.98858871E-05  9.98858871E-05  9.98858871E-05  9.98858871E-05  9.98858871E-05  9.98858871E-05  9.98858871E-05  9.98858871E-05  2.65610426E-04  3.03435336E-04  3.11943895E-04  2.50293826E-04  2.00485082E-04  1.82446618E-04  1.76345102E-04  1.68811200E-04  1.71290461E-04  1.90824619E-04  1.88276350E-04  1.63910315E-04  1.28633409E-04  1.05307145E-04  8.16921684E-05  7.07184290E-05  8.46522548E-05  1.30545885E-04  1.53874851E-04  1.48745511E-04  1.55251735E-04  1.68762831E-04  1.37605677E-04  9.07919596E-05  6.13438776E-05  4.10245461E-05  2.58073353E-05  1.89843257E-05  1.50936372E-05  1.30809886E-05  1.37727732E-05  1.47979251E-05  1.76406006E-05  2.32026274E-05  2.84741707E-05  3.63495628E-05  4.64015021E-05  6.16355338E-05  8.21380867E-05  1.17489931E-04  9.98858871E-05  9.98858871E-05  9.98858871E-05  9.98858871E-05  9.98858871E-05  9.98858871E-05  9.98858871E-05  9.98858871E-05  9.98858871E-05  9.98858871E-05  9.98858871E-05  9.98858871E-05  9.98858871E-05  9.98858871E-05  9.98858871E-05  2.01287937E-05  1.83060724E-05  2.31749012E-05  2.65863243E-05  3.22238745E-05  3.54395004E-05  4.21663168E-05  5.64323046E-05  8.96293559E-05  1.34404976E-04  1.93921955E-04  2.51635883E-04  3.40514403E-04  3.56782227E-04  3.55014815E-04  3.20296925E-04  2.27790871E-04  1.68414189E-04  1.44043926E-04  1.20357904E-04  8.24894723E-05  5.56618079E-05  3.64694911E-05  2.52220076E-05  1.92598416E-05  1.57655311E-05  1.30185040E-05  1.11262927E-05
      9.11651506E-05  8.55443581E-05  6.60663242E-05  4.71454193E-05  3.42716487E-05  3.87308086E-05  4.17245219E-05  5.03902282E-05  6.48068913E-05  7.72534699E-05  8.57887213E-05  8.02613031E-05  8.75588085E-05  8.28649216E-05  9.27993710E-05  9.42849732E-05  8.82238903E-05  8.17398998E-05  7.25264668E-05  6.32978182E-05  4.92298819E-05  3.54244839E-05  2.76060807E-05  2.43197257E-05  2.53468496E-05  2.59352739E-05  2.74744245E-05  2.43314774E-05  2.08579701E-05  1.85575582E-05  1.87270154E-05  1.78471663E-05  1.94515733E-05  2.44070911E-05  3.39985041E-05  4.97480876E-05  6.60670496E-05  8.43139635E-05  9.36128379E-05  9.93129631E-05  1.14559222E-04  1.30375214E-04  1.30370276E-04  1.17707819E-04  1.04662161E-04  8.53351635E-05  7.47635047E-05  6.55412156E-05  7.44583543E-05  7.30196186E-05  7.97593414E-05  9.98858871E-05  9.98858871E-05  9.98858871E-05  9.98858871E-05  9.98858871E-05  9.98858871E-05  9.98858871E-05  7.44245166E-05  6.78491481E-05  6.48332952E-05  5.55769848E-05  4.96789850E-05  5.38840331E-05  5.58395059E-05  5.25753630E-05  4.89731026E-05  5.37878618E-05  7.25567329E-05  9.29217194E-05  1.03624261E-04  1.04203510E-04  9.98858871E-05  9.98858871E-05  9.98858871E-05  9.98858871E-05  9.98858871E-05  9.98858871E-05  9.98858871E-05  9.98858871E-05  9.98858871E-05  9.98858871E-05  9.98858871E-05  9.98858871E-05  9.98858871E-05  1.62353664E-04  1.82141687E-04  1.90285142E-04  1.68486875E-04  1.51684882E-04  1.43257602E-04  1.33925563E-04  1.22833438E-04  1.26378202E-04  1.25935924E-04  1.20554039E-04  1.15507618E-04  1.00127994E-04  1.00853441E-04  8.61608326E-05  7.91181874E-05  9.04136450E-05  1.23141520E-04  1.36658624E-04  1.35170533E-04  1.46095664E-04  1.34484540E-04  1.00162190E-04  8.08465400E-05  5.61663182E-05  3.59564720E-05  2.37462792E-05  1.83394677E-05  1.36326902E-05  1.23672256E-05  1.53259087E-05  1.72233963E-05  2.05296369E-05  2.64862723E-05  3.45070315E-05  4.49876037E-05  5.77502995E-05  7.66803499E-05  9.04946860E-05  1.10674810E-04  9.98858871E-05  9.98858871E-05  9.98858871E-05  9.98858871E-05  9.98858871E-05  9.98858871E-05  9.98858871E-05  9.98858871E-05  9.98858871E-05  9.98858871E-05  9.98858871E-05  9.98858871E-05  9.98858871E-05  9.98858871E-05  9.98858871E-05  1.71327891E-05  1.72381907E-05  2.39450746E-05  3.22762801E-05  4.24168296E-05  5.02292096E-05  5.23373813E-05  6.16466332E-05  9.28624622E-05  1.48513864E-04  2.08808495E-04  2.28623488E-04  2.73605140E-04  3.15898440E-04  3.13252762E-04  2.63712754E-04  1.93417889E-04  1.54437121E-04  1.18415839E-04  1.02892721E-04  7.57531559E-05  5.43288674E-05  3.99553023E-05  3.16953213E-05  2.18917286E-05  1.83188802E-05  1.41542860E-05  1.22746682E-05
      8.58375269E-05  7.84590972E-05  5.98610640E-05  4.73627569E-05  3.90934464E-05  4.06003750E-05  4.34958917E-05  5.63700069E-05  7.43351741E-05  8.39027412E-05  9.59843930E-05  9.10365186E-05  9.11326253E-05  8.77262448E-05  9.12881508E-05  8.98331961E-05  7.71601384E-05  6.41345000E-05  5.84553473E-05  5.58061635E-05  3.93474275E-05  2.53658645E-05  2.04975190E-05  1.44088532E-05  1.46581782E-05  1.75518836E-05  1.86464033E-05  1.78397608E-05  1.75888848E-05  1.66352663E-05  1.67905619E-05  1.56620475E-05  1.81309660E-05  2.25484654E-05  3.27780083E-05  4.63846417E-05  6.31459383E-05  7.91318269E-05  9.32237927E-05  1.06354836E-04  1.13501909E-04  1.22248505E-04  1.12681831E-04  9.09975447E-05  9.22040108E-05  9.44093839E-05  8.83507793E-05  9.49685033E-05  1.11376290E-04  1.31066506E-04  1.34327892E-04  9.98858871E-05  9.98858871E-05  9.98858871E-05  9.98858871E-05  9.98858871E-05  9.98858871E-05  9.98858871E-05  9.98858871E-05  6.35950634E-05  6.48441161E-05  5.98891351E-05  5.78449174E-05  5.64514536E-05  5.29196639E-05  5.22272808E-05  5.73990803E-05  6.00809883E-05  7.29387693E-05  8.97027993E-05  1.07998139E-04  9.98858871E-05  9.98858871E-05  9.98858871E-05  9.98858871E-05  9.98858871E-05  9.98858871E-05  9.98858871E-05  9.98858871E-05  9.98858871E-05  9.98858871E-05  9.98858871E-05  9.98858871E-05  9.98858871E-05  9.98858871E-05  9.98858871E-05  1.22481135E-04  1.25841450E-04  1.15630955E-04  1.12854119E-04  9.93923770E-05  1.01292286E-04  1.00003514E-04  9.31549327E-05  7.91543329E-05  8.71401792E-05  8.87155919E-05  8.97360951E-05  8.58110479E-05  8.21200519E-05  8.27070361E-05  8.43897224E-05  1.14534572E-04  1.32291870E-04  1.27834889E-04  1.30907731E-04  1.24043102E-04  8.91946572E-05  7.55227828E-05  5.42907639E-05  3.53657240E-05  2.29544822E-05  1.75274839E-05  1.31406419E-05  1.26953828E-05  1.48807747E-05  1.92449813E-05  2.41015929E-05  3.02149408E-05  4.00838261E-05  5.56991613E-05  6.88009617E-05  8.10903925E-05  9.07513966E-05  1.14627542E-04  9.98858871E-05  9.98858871E-05  9.98858871E-05  9.98858871E-05  9.98858871E-05  9.98858871E-05  9.98858871E-05  9.98858871E-05  9.98858871E-05  9.98858871E-05  9.98858871E-05  9.98858871E-05  9.98858871E-05  9.98858871E-05  9.98858871E-05  1.84570748E-05  1.86049303E-05  2.66274273E-05  4.26038543E-05  6.33229816E-05  6.83811093E-05  6.80264553E-05  8.34033675E-05  1.24391088E-04  1.90854268E-04  2.40602278E-04  2.53446512E-04  2.62872387E-04  2.88014744E-04  2.82012287E-04  2.17167868E-04  1.81894375E-04  1.35095828E-04  1.08424970E-04  8.86353656E-05  7.41196919E-05  5.96965182E-05  5.01105578E-05  4.40839431E-05  3.04262363E-05  2.22000284E-05  1.71572421E-05  1.40173389E-05
      6.24206975E-05  5.95017767E-05  5.42274960E-05  4.41432274E-05  4.55843098E-05  4.66103947E-05  4.58313211E-05  6.34987783E-05  9.12709127E-05  1.02780827E-04  1.07635901E-04  1.01353862E-04  1.12809458E-04  1.10877990E-04  1.04629645E-04  8.70901549E-05  7.10931277E-05  5.54304833E-05  4.39421110E-05  4.07438107E-05  2.86786767E-05  2.25402474E-05  1.80170787E-05  1.31976688E-05  1.09089788E-05  1.14596082E-05  1.42427867E-05  1.60571494E-05  1.74430892E-05  1.69440513E-05  1.71153788E-05  1.71118839E-05  1.89355302E-05  2.38794118E-05  3.32518838E-05  4.37099847E-05  6.24745895E-05  8.04462228E-05  9.78924863E-05  1.10215644E-04  1.01923945E-04  1.07032283E-04  8.97330408E-05  7.86810612E-05  7.61746847E-05  8.77756708E-05  1.05101076E-04  1.18938939E-04  1.54900049E-04  1.92669164E-04  1.90502444E-04  9.98858871E-05  9.98858871E-05  9.98858871E-05  9.98858871E-05  9.98858871E-05  9.98858871E-05  9.98858871E-05  9.98858871E-05  7.71908126E-05  7.98412636E-05  7.89697817E-05  6.90804994E-05  6.51308856E-05  6.10639928E-05  5.53103536E-05  5.64283392E-05  6.77978401E-05  8.03060823E-05  1.04560970E-04  1.17437698E-04  9.98858871E-05  9.98858871E-05  9.98858871E-05  9.98858871E-05  9.98858871E-05  9.98858871E-05  9.98858871E-05  9.98858871E-05  9.98858871E-05  9.98858871E-05  9.98858871E-05  9.98858871E-05  9.98858871E-05  9.98858871E-05  9.98858871E-05  1.02029417E-04  8.98106120E-05  7.75659023E-05  7.30409476E-05  6.59011443E-05  6.97837481E-05  6.48943288E-05  6.21187099E-05  6.09137274E-05  6.49224792E-05  7.19051547E-05  7.16054596E-05  7.07306981E-05  8.28731104E-05  8.65774186E-05  9.72006101E-05  1.12887393E-04  1.21724548E-04  1.39293137E-04  1.32784969E-04  1.32749838E-04  1.01943139E-04  6.92019621E-05  5.17304847E-05  3.69545131E-05  2.48369742E-05  1.81038729E-05  1.52207144E-05  1.36743501E-05  1.61859219E-05  2.28900781E-05  2.63818170E-05  3.45079787E-05  4.57303881E-05  6.27098990E-05  7.60540926E-05  7.46582609E-05  8.52056825E-05  9.31862357E-05  9.98858871E-05  9.98858871E-05  9.98858871E-05  9.98858871E-05  9.98858871E-05  9.98858871E-05  9.98858871E-05  9.98858871E-05  9.98858871E-05  9.98858871E-05  9.98858871E-05  9.98858871E-05  9.98858871E-05  9.98858871E-05  9.98858871E-05  2.41073359E-05  2.47607899E-05  3.42306202E-05  5.85956880E-05  8.38372682E-05  1.01926407E-04  1.04775068E-04  1.22454040E-04  1.66510089E-04  2.46444349E-04  2.83680731E-04  2.89368049E-04  2.71652735E-04  2.80719734E-04  2.48999794E-04  2.03142378E-04  1.73323808E-04  1.43415609E-04  1.15518461E-04  9.95286629E-05  8.69807372E-05  7.44138944E-05  6.56403095E-05  5.46216442E-05  4.67746008E-05  3.23827339E-05  2.05715828E-05  1.52864493E-05
      4.03891386E-05  4.45113126E-05  4.43356249E-05  4.10689828E-05  4.62055168E-05  4.99195108E-05  5.36915674E-05  6.89443359E-05  1.04338373E-04  1.31280524E-04  1.29589498E-04  1.17966126E-04  1.33938577E-04  1.25085735E-04  1.33611623E-04  1.02063926E-04  7.58092357E-05  5.70068555E-05  3.97483823E-05  3.08773314E-05  2.70603834E-05  2.35769717E-05  2.06848497E-05  1.55544605E-05  1.04603456E-05  1.01208743E-05  1.25234080E-05  1.55941495E-05  1.70172477E-05  1.74737398E-05  1.83737712E-05  2.04183631E-05  2.40260287E-05  3.07476243E-05  3.88119884E-05  4.57522347E-05  6.35337868E-05  8.02709973E-05  9.71724396E-05  9.38553080E-05  7.65309709E-05  6.96724320E-05  7.28061912E-05  6.92097126E-05  7.44313810E-05  8.96204995E-05  1.15541865E-04  1.44253870E-04  1.86231401E-04  2.25153768E-04  2.28203668E-04  9.98858871E-05  9.98858871E-05  9.98858871E-05  9.98858871E-05  9.98858871E-05  9.98858871E-05  9.98858871E-05  9.98858871E-05  1.21314938E-04  1.25669547E-04  1.12600762E-04  9.24615095E-05  8.69099042E-05  8.40172344E-05  7.30493686E-05  8.12052383E-05  8.97932586E-05  1.11833292E-04  1.26121137E-04  1.34720261E-04  9.98858871E-05  9.98858871E-05  9.98858871E-05  9.98858871E-05  9.98858871E-05  9.98858871E-05  9.98858871E-05  9.98858871E-05  2.02324795E-04  1.44077063E-04  1.03781446E-04  7.20060431E-05  5.30298848E-05  9.98858871E-05  9.98858871E-05  1.02101754E-04  7.68526312E-05  6.60716197E-05  5.31895436E-05  4.51154699E-05  4.61361173E-05  4.34761726E-05  4.50674961E-05  4.43085678E-05  5.20537048E-05  5.61626182E-05  5.49892463E-05  5.77865800E-05  7.41254701E-05  8.89388346E-05  9.08135940E-05  9.46106939E-05  1.19145254E-04  1.55258639E-04  1.61202123E-04  1.49784466E-04  1.22014576E-04  8.77818389E-05  6.03791684E-05  4.04244088E-05  2.90657656E-05  1.90523989E-05  1.62739336E-05  1.57759898E-05  1.85972512E-05  2.45680859E-05  2.99003682E-05  4.16663357E-05  6.34796084E-05  7.56423663E-05  7.98819493E-05  8.00595778E-05  7.57905933E-05  7.57553184E-05  9.98858871E-05  9.98858871E-05  9.98858871E-05  9.98858871E-05  9.98858871E-05  9.98858871E-05  9.98858871E-05  9.98858871E-05  9.98858871E-05  9.98858871E-05  9.98858871E-05  9.98858871E-05  9.98858871E-05  9.98858871E-05  9.98858871E-05  3.05525749E-05  3.52175878E-05  5.21302314E-05  8.53639326E-05  1.04003311E-04  1.53994851E-04  1.60562592E-04  1.96261555E-04  2.72925863E-04  3.58132922E-04  3.45168647E-04  3.18636251E-04  2.90661007E-04  2.63323313E-04  2.43677834E-04  2.04152808E-04  1.73479831E-04  1.57295245E-04  1.34553292E-04  1.19259315E-04  1.07768107E-04  1.00411425E-04  9.12951672E-05  7.73437723E-05  6.15557987E-05  3.92558599E-05  2.59084351E-05  1.99587011E-05
      3.54381385E-05  3.55612673E-05  3.64941252E-05  3.72458034E-05  4.18114256E-05  5.20021214E-05  7.19622574E-05  8.43517419E-05  1.21244030E-04  1.47831959E-04  1.59643407E-04  1.61273910E-04  1.61615844E-04  1.53650398E-04  1.64057324E-04  1.15205162E-04  7.90230368E-05  6.30598179E-05  4.88517321E-05  3.23073742E-05  2.97383037E-05  2.64708058E-05  2.16508271E-05  1.63686949E-05  1.29699388E-05  1.34525669E-05  1.54852606E-05  1.86869223E-05  2.13481383E-05  2.34013675E-05  2.62349634E-05  3.08442269E-05  3.88857806E-05  3.92455170E-05  5.28995638E-05  6.18060350E-05  6.75941832E-05  9.44512708E-05  9.98858871E-05  9.98858871E-05  6.99355432E-05  6.75295724E-05  6.34239442E-05  6.26155040E-05  7.49783065E-05  9.68769282E-05  1.20686011E-04  1.53292661E-04  1.77323747E-04  2.09794353E-04  2.53152686E-04  9.98858871E-05  9.98858871E-05  9.98858871E-05  3.07165474E-04  9.98858871E-05  9.98858871E-05  9.98858871E-05  9.98858871E-05  9.98858871E-05  1.87337710E-04  1.66899221E-04  1.52649392E-04  1.21605659E-04  1.16993241E-04  1.14002738E-04  1.24302413E-04  1.44715268E-04  1.58899933E-04  1.56638274E-04  1.48733997E-04  9.98858871E-05  9.98858871E-05  9.98858871E-05  9.98858871E-05  9.98858871E-05  9.98858871E-05  9.98858871E-05  2.71404395E-04  2.19401791E-04  1.62300730E-04  1.12236024E-04  9.38728280E-05  6.65783130E-05  7.50634769E-05  1.02218240E-04  1.04970470E-04  8.71955934E-05  6.82796770E-05  4.86266543E-05  3.60144339E-05  3.13140314E-05  2.94417502E-05  3.20963686E-05  3.12827255E-05  3.86555279E-05  3.57461156E-05  3.68731292E-05  4.82804304E-05  7.49489229E-05  9.49665222E-05  9.99459950E-05  1.09733982E-04  1.40396420E-04  1.76762943E-04  1.93138831E-04  1.65404691E-04  1.33705544E-04  1.02434964E-04  6.08464158E-05  4.23350816E-05  3.13360433E-05  2.27153996E-05  1.92755175E-05  2.00272994E-05  2.26283000E-05  2.90084745E-05  4.18585989E-05  5.67373512E-05  7.98794936E-05  7.95612363E-05  7.65094628E-05  8.38659927E-05  8.20512852E-05  9.98858871E-05  9.98858871E-05  9.98858871E-05  9.98858871E-05  9.98858871E-05  9.98858871E-05  9.98858871E-05  9.98858871E-05  9.98858871E-05  9.98858871E-05  9.98858871E-05  9.98858871E-05  9.98858871E-05  9.98858871E-05  9.98858871E-05  3.63085183E-05  4.82159076E-05  5.85069078E-05  9.03995497E-05  1.44428119E-04  1.73459928E-04  2.33939175E-04  2.50090547E-04  3.11083692E-04  3.50378384E-04  4.54621025E-04  3.63049505E-04  3.26589221E-04  2.78498148E-04  2.59919885E-04  2.47911212E-04  2.03367887E-04  1.98066426E-04  1.76929929E-04  1.60118425E-04  1.43280962E-04  1.48819348E-04  1.47150278E-04  1.39099041E-04  1.13962003E-04  8.13993930E-05  5.27449449E-05  3.64367114E-05  2.99014188E-05
      3.08587248E-05  2.67043993E-05  2.93166894E-05  3.05485497E-05  3.56027571E-05  9.98858871E-05  9.98858871E-05  9.98858871E-05  1.33946665E-04  1.59477239E-04  1.98620767E-04  2.05681047E-04  2.13430760E-04  1.85448585E-04  2.06057623E-04  1.51703952E-04  9.64301573E-05  7.03354334E-05  5.75365060E-05  3.81058999E-05  3.12249384E-05  2.82603850E-05  2.25772021E-05  1.74685413E-05  1.77686248E-05  1.98956235E-05  2.28028345E-05  2.69481008E-05  2.85683980E-05  3.47083432E-05  4.15331938E-05  4.86855792E-05  5.67019163E-05  5.91610126E-05  7.49615145E-05  7.23723854E-05  8.13435539E-05  9.98858871E-05  9.98858871E-05  9.98858871E-05  8.40543260E-05  7.52547617E-05  6.79127971E-05  6.63204046E-05  6.75228997E-05  8.16762043E-05  1.00109911E-04  1.31685534E-04  1.62209874E-04  1.84655780E-04  2.22002113E-04  2.37863341E-04  2.74857843E-04  3.20843362E-04  3.63667282E-04  4.20703833E-04  3.46865902E-04  2.77633526E-04  9.98858871E-05  9.98858871E-05  9.98858871E-05  2.19107856E-04  1.97440672E-04  1.62876263E-04  1.50408149E-04  1.54644639E-04  1.74774238E-04  2.18035496E-04  2.07980096E-04  1.89412276E-04  9.98858871E-05  9.98858871E-05  9.98858871E-05  9.98858871E-05  9.98858871E-05  9.98858871E-05  9.98858871E-05  3.52680656E-04  3.22221763E-04  2.50739004E-04  1.91911431E-04  1.36190386E-04  1.17003004E-04  9.47051666E-05  8.74139555E-05  8.94203818E-05  9.66551948E-05  9.05348361E-05  6.82447508E-05  5.15428814E-05  3.81129713E-05  2.83237234E-05  2.68570061E-05  2.42230168E-05  2.19620752E-05  2.49183718E-05  2.69315959E-05  3.38074336E-05  4.85044382E-05  8.20296668E-05  1.18709061E-04  1.34251442E-04  1.61647876E-04  1.88580887E-04  2.03320220E-04  2.18192715E-04  1.81691580E-04  1.38379437E-04  1.00509870E-04  7.26366802E-05  4.59785948E-05  3.56653174E-05  3.17219546E-05  2.98623760E-05  2.94795633E-05  2.99560987E-05  4.10414408E-05  6.19930013E-05  8.93443247E-05  1.11741607E-04  1.01983385E-04  9.14482590E-05  9.21543173E-05  8.35103939E-05  9.98858871E-05  9.98858871E-05  9.98858871E-05  9.98858871E-05  9.98858871E-05  9.98858871E-05  9.98858871E-05  9.98858871E-05  9.98858871E-05  9.98858871E-05  9.98858871E-05  9.98858871E-05  9.98858871E-05  9.98858871E-05  9.98858871E-05  5.39104260E-05  8.09110987E-05  1.01530844E-04  1.50862892E-04  2.21014087E-04  2.43615235E-04  3.02334912E-04  3.66571484E-04  4.16825107E-04  4.30213387E-04  4.78752101E-04  4.02430188E-04  3.29329456E-04  3.22746855E-04  2.98547702E-04  2.68161081E-04  2.30805399E-04  2.28976693E-04  2.08016750E-04  1.80031378E-04  1.72189907E-04  1.91243064E-04  2.12021205E-04  2.12808564E-04  1.63276531E-04  1.35283521E-04  8.41875109E-05  5.91147169E-05  4.82978208E-05
      3.36211281E-05  9.98858871E-05  9.98858871E-05  9.98858871E-05  9.98858871E-05  9.98858871E-05  9.98858871E-05  9.98858871E-05  9.98858871E-05  9.98858871E-05  1.78025739E-04  2.19096910E-04  2.57136590E-04  2.10849330E-04  2.03879527E-04  1.61764791E-04  1.06599055E-04  7.57940052E-05  5.46107303E-05  3.97478586E-05  3.41286198E-05  3.16733005E-05  2.55118864E-05  2.40282711E-05  2.71268397E-05  2.94610550E-05  3.40301737E-05  3.19495412E-05  3.36439860E-05  4.09792577E-05  6.27514310E-05  7.74567987E-05  8.51184429E-05  9.45593917E-05  1.06265542E-04  1.03566536E-04  1.07274053E-04  9.98858871E-05  9.98858871E-05  9.98858871E-05  9.98858871E-05  7.78812229E-05  6.21737064E-05  5.94156030E-05  6.00493987E-05  6.57700921E-05  8.06539697E-05  8.92917606E-05  1.11068066E-04  1.39042010E-04  2.03513970E-04  2.39240775E-04  2.80043240E-04  3.55950571E-04  4.18063302E-04  4.78718198E-04  3.80439245E-04  3.40040852E-04  3.66857961E-04  9.98858871E-05  9.98858871E-05  2.73151452E-04  2.73790554E-04  2.41297125E-04  2.15418002E-04  1.92454462E-04  2.29199925E-04  3.01443281E-04  9.98858871E-05  9.98858871E-05  9.98858871E-05  9.98858871E-05  9.98858871E-05  9.98858871E-05  3.09369208E-04  3.82818390E-04  4.74681005E-04  4.86401372E-04  4.82108521E-04  3.42696733E-04  2.37824170E-04  1.85006251E-04  1.53003947E-04  1.30511561E-04  1.08819550E-04  9.02293887E-05  8.38722544E-05  7.76097742E-05  6.14807567E-05  4.83231753E-05  4.14445021E-05  3.02946652E-05  2.64115530E-05  2.47267218E-05  2.06083416E-05  1.92712429E-05  2.21991022E-05  3.37439823E-05  5.16877336E-05  8.61211093E-05  1.26471412E-04  1.79619319E-04  2.36541100E-04  2.64860106E-04  2.59393035E-04  2.34852276E-04  2.03489057E-04  1.45475488E-04  1.13641570E-04  8.42392900E-05  6.19513591E-05  5.10361744E-05  4.88568815E-05  4.22380453E-05  4.28855385E-05  4.46162167E-05  6.47538312E-05  9.28517571E-05  1.17452656E-04  1.27313195E-04  1.30176178E-04  1.16766804E-04  1.01565352E-04  9.98858871E-05  9.98858871E-05  9.98858871E-05  9.98858871E-05  9.98858871E-05  9.98858871E-05  9.98858871E-05  9.98858871E-05  9.98858871E-05  9.98858871E-05  9.98858871E-05  9.98858871E-05  9.98858871E-05  9.98858871E-05  9.98858871E-05  9.98858871E-05  6.34856724E-05  9.03350571E-05  1.21918693E-04  1.49525670E-04  2.28431915E-04  2.80449864E-04  3.53482742E-04  4.06802248E-04  4.94055133E-04  4.59880865E-04  5.01784977E-04  4.53801404E-04  3.62219745E-04  3.29349525E-04  3.05315994E-04  3.00602133E-04  2.74242444E-04  2.70919254E-04  2.35684307E-04  2.27045530E-04  2.48148954E-04  2.84943897E-04  2.95346067E-04  3.06155878E-04  2.53253741E-04  1.89704174E-04  1.17467681E-04  7.98885276E-05  5.81840418E-05
      9.98858871E-05  9.98858871E-05  9.98858871E-05  9.98858871E-05  9.98858871E-05  9.98858871E-05  9.98858871E-05  9.98858871E-05  9.98858871E-05  9.98858871E-05  9.98858871E-05  2.43046170E-04  2.66761348E-04  2.24867805E-04  1.87651134E-04  1.62235433E-04  1.14055760E-04  8.77734542E-05  5.81563229E-05  3.89392714E-05  3.60667865E-05  3.83461807E-05  3.54005329E-05  3.70883668E-05  4.20581674E-05  3.98361997E-05  3.81821643E-05  3.69191085E-05  3.79684989E-05  4.79439882E-05  7.56981148E-05  1.06079608E-04  1.29333782E-04  1.50450101E-04  1.50119758E-04  1.37838545E-04  1.31795247E-04  9.98858871E-05  9.98858871E-05  9.98858871E-05  9.98858871E-05  9.98858871E-05  5.54135667E-05  4.91343561E-05  4.85408256E-05  5.23028567E-05  6.05354258E-05  7.32048109E-05  9.18632737E-05  1.26396450E-04  1.84429959E-04  2.53810198E-04  3.18465395E-04  3.96178455E-04  4.47201404E-04  4.75499180E-04  3.93294812E-04  4.00220392E-04  3.99704181E-04  9.98858871E-05  9.98858871E-05  3.44793849E-04  3.29982230E-04  2.86893217E-04  2.89546342E-04  2.81183214E-04  3.32414985E-04  4.21744890E-04  9.98858871E-05  9.98858871E-05  2.32146168E-04  2.19960532E-04  2.41933938E-04  2.97210198E-04  3.28289902E-04  3.99175268E-04  5.11672415E-04  5.90644689E-04  5.84701752E-04  4.47482841E-04  3.32793135E-04  2.80759343E-04  2.19142862E-04  2.11140299E-04  1.63306741E-04  1.32223112E-04  9.51520940E-05  7.15911522E-05  5.72946223E-05  4.56541826E-05  3.69188248E-05  2.89691345E-05  2.40791631E-05  2.22810023E-05  2.05334466E-05  2.20462957E-05  2.33807189E-05  3.77185314E-05  5.79643147E-05  1.05112154E-04  1.57620263E-04  2.32658545E-04  3.08886907E-04  3.40719907E-04  3.30259873E-04  2.75363944E-04  2.31850814E-04  1.74418157E-04  1.33993735E-04  1.04112135E-04  9.24543020E-05  7.77522093E-05  7.49255560E-05  6.89690935E-05  6.46745355E-05  6.84512696E-05  9.08138932E-05  1.16721492E-04  1.38470780E-04  1.37948462E-04  1.35552266E-04  1.21843553E-04  1.05959070E-04  9.98858871E-05  9.98858871E-05  9.98858871E-05  9.98858871E-05  9.98858871E-05  9.98858871E-05  9.98858871E-05  9.98858871E-05  9.98858871E-05  9.98858871E-05  9.98858871E-05  9.98858871E-05  9.98858871E-05  9.98858871E-05  9.98858871E-05  9.98858871E-05  6.70063691E-05  8.91257397E-05  1.18928231E-04  1.55609687E-04  2.45884738E-04  3.10907157E-04  3.82355059E-04  4.43286888E-04  5.14226509E-04  4.52395518E-04  4.64294039E-04  3.76579923E-04  3.35538817E-04  3.07590034E-04  2.84302482E-04  2.78198340E-04  2.73369572E-04  2.70471949E-04  2.55730235E-04  2.81506483E-04  3.45904653E-04  3.86704917E-04  3.97176265E-04  4.22949633E-04  3.76438337E-04  2.23603073E-04  1.40936671E-04  8.28814820E-05  5.18551357E-05
      9.98858871E-05  9.98858871E-05  9.98858871E-05  9.98858871E-05  9.98858871E-05  9.98858871E-05  9.98858871E-05  9.98858871E-05  9.98858871E-05  9.98858871E-05  9.98858871E-05  2.86499583E-04  2.87494860E-04  2.32224304E-04  1.88950115E-04  1.59281598E-04  1.37410839E-04  1.13319736E-04  7.78295918E-05  5.01510684E-05  4.98740396E-05  5.01565200E-05  4.98044887E-05  6.30218874E-05  6.42065065E-05  5.30393762E-05  4.60814417E-05  4.24548959E-05  4.54986054E-05  5.33820853E-05  7.30449575E-05  1.16812710E-04  1.73211947E-04  1.79800750E-04  1.65164598E-04  1.40492256E-04  9.98858871E-05  9.98858871E-05  9.98858871E-05  9.98858871E-05  9.98858871E-05  9.98858871E-05  5.39828064E-05  4.31074171E-05  4.04439870E-05  4.07117483E-05  4.78609408E-05  6.16063735E-05  9.20313626E-05  1.31144022E-04  1.66939815E-04  2.07692114E-04  3.07292139E-04  3.73295263E-04  3.85073923E-04  3.96731492E-04  3.59888394E-04  3.65594962E-04  3.86580958E-04  4.18462837E-04  3.91627639E-04  3.88377784E-04  3.71682668E-04  3.49866914E-04  3.66965523E-04  3.68481179E-04  3.91924661E-04  5.17908393E-04  5.07385719E-04  3.52870061E-04  2.70994223E-04  2.46546381E-04  2.65334252E-04  3.02950311E-04  3.34634676E-04  4.25186880E-04  5.74173280E-04  5.99510104E-04  6.02428897E-04  5.71134852E-04  5.13183342E-04  4.44170416E-04  3.68490282E-04  3.39058495E-04  2.23084551E-04  1.62067723E-04  1.25308147E-04  8.91084208E-05  5.97386124E-05  4.06016677E-05  3.15712934E-05  2.37409871E-05  2.04172198E-05  2.13378275E-05  2.22276134E-05  2.60855761E-05  3.31859406E-05  4.99202782E-05  7.93871540E-05  1.39276315E-04  1.97686004E-04  2.74077938E-04  3.39892664E-04  4.21353325E-04  4.01313855E-04  3.43924049E-04  2.92126481E-04  2.27525914E-04  1.64184724E-04  1.43724651E-04  1.35354763E-04  1.10488561E-04  8.86502565E-05  8.45600111E-05  8.11342090E-05  9.66071329E-05  1.34919801E-04  1.64448848E-04  1.69054922E-04  1.49430890E-04  1.26945047E-04  1.11570466E-04  8.82887176E-05  9.98858871E-05  9.98858871E-05  9.98858871E-05  9.98858871E-05  9.98858871E-05  9.98858871E-05  9.98858871E-05  9.98858871E-05  9.98858871E-05  9.98858871E-05  9.98858871E-05  9.98858871E-05  9.98858871E-05  9.98858871E-05  9.98858871E-05  6.36995371E-05  7.38609482E-05  9.71227342E-05  1.37972774E-04  1.71435336E-04  2.42260888E-04  3.17144498E-04  4.04314887E-04  4.74067973E-04  5.09067285E-04  4.68196108E-04  4.31495379E-04  3.37134674E-04  2.77574852E-04  2.72902940E-04  2.32722160E-04  2.35564655E-04  2.30349703E-04  2.13673203E-04  2.38273199E-04  3.08468685E-04  4.12506081E-04  4.92324495E-04  4.72561942E-04  4.89930824E-04  4.17430798E-04  2.29195773E-04  1.24538746E-04  6.33067146E-05  4.02124543E-05
      9.98858871E-05  9.98858871E-05  9.98858871E-05  9.98858871E-05  9.98858871E-05  9.98858871E-05  9.98858871E-05  9.98858871E-05  9.98858871E-05  9.98858871E-05  9.98858871E-05  9.98858871E-05  2.41638336E-04  1.90117867E-04  1.75587455E-04  1.67678189E-04  1.62906220E-04  1.39430161E-04  1.02804076E-04  7.56960370E-05  7.12009284E-05  6.38269541E-05  6.83741273E-05  8.17062516E-05  8.00007930E-05  7.37660456E-05  6.08229711E-05  5.29268692E-05  5.32996243E-05  6.29891665E-05  8.55326184E-05  1.27301804E-04  1.79058530E-04  1.67355582E-04  1.48678403E-04  1.25314338E-04  1.16078712E-04  9.98858871E-05  9.98858871E-05  9.98858871E-05  9.98858871E-05  9.98858871E-05  6.13379509E-05  4.55646946E-05  3.82590015E-05  4.20614000E-05  4.03494688E-05  5.34268244E-05  8.82818353E-05  1.35218330E-04  1.66386822E-04  2.01792240E-04  2.73360718E-04  3.22280497E-04  3.28462783E-04  3.48840083E-04  3.33949415E-04  3.56894084E-04  3.73178675E-04  4.06955255E-04  4.37751580E-04  4.10917155E-04  3.90444162E-04  3.63726382E-04  4.02398155E-04  4.24238858E-04  4.38963729E-04  4.51256257E-04  3.98638739E-04  3.08430247E-04  2.57361419E-04  2.53745554E-04  2.57628588E-04  3.17916201E-04  3.59644871E-04  5.06206899E-04  6.29137241E-04  6.10352705E-04  5.88752800E-04  5.98525532E-04  6.00872555E-04  6.74900648E-04  6.17680449E-04  4.63721405E-04  2.70083943E-04  1.78133571E-04  1.33932842E-04  1.01522985E-04  6.11663903E-05  3.62065668E-05  2.73801076E-05  2.38827680E-05  2.03804662E-05  2.07674099E-05  2.35098143E-05  2.90420002E-05  3.98139430E-05  6.39576455E-05  1.01891832E-04  1.70770955E-04  2.34487819E-04  3.08045449E-04  3.72221536E-04  4.46032371E-04  4.45780479E-04  4.29615091E-04  3.30615787E-04  2.77024231E-04  2.33223901E-04  1.98533119E-04  1.89574560E-04  1.60099351E-04  1.26118575E-04  1.14515899E-04  1.07577063E-04  1.29240875E-04  1.95843848E-04  2.24930649E-04  2.04189124E-04  1.70726992E-04  1.37624186E-04  1.06687340E-04  8.62385350E-05  9.98858871E-05  9.98858871E-05  9.98858871E-05  9.98858871E-05  9.98858871E-05  9.98858871E-05  9.98858871E-05  9.98858871E-05  9.98858871E-05  9.98858871E-05  9.98858871E-05  9.98858871E-05  9.98858871E-05  9.98858871E-05  9.98858871E-05  7.93719889E-05  9.06764973E-05  1.27256665E-04  1.70174719E-04  1.83109874E-04  2.45816580E-04  3.35897654E-04  4.02007558E-04  4.51794400E-04  4.75274740E-04  4.39711168E-04  3.43845137E-04  2.63252489E-04  1.94383578E-04  2.14674605E-04  2.00971926E-04  1.94433206E-04  1.89544381E-04  1.83039722E-04  2.26548251E-04  3.02937339E-04  4.18839299E-04  4.54584588E-04  4.73350477E-04  5.01474894E-04  3.88222171E-04  2.12836488E-04  1.19062149E-04  5.81503848E-05  3.22294651E-05