# File generated by Flopy version 3.8.2 on 01/24/2025 at 09:12:50.
BEGIN options
END options

BEGIN griddata
  strt
    CONSTANT       1.00000000
END griddata

