# File generated by Flopy version 3.8.2 on 01/22/2025 at 12:04:54.
BEGIN options
END options

BEGIN packages
  OC6  model_layers.oc  oc
  IC6  model_layers.ic  ic
  DIS6  model_layers.dis  dis
  NPF6  model_layers.npf  npf
  CHD6  model_layers.chd  chd_0
END packages

