# File generated by Flopy version 3.8.2 on 01/28/2025 at 14:56:36.
BEGIN options
  COMPLEXITY  moderate
END options

