# File generated by Flopy version 3.8.2 on 01/22/2025 at 12:07:46.
BEGIN options
  COMPLEXITY  moderate
END options

