# File generated by Flopy version 3.9.1 on 09/07/2025 at 21:42:30.
BEGIN options
  DIGITS  5
  PRINT_INPUT
END options

BEGIN continuous  FILEOUT  head_obs_ref.csv
  h1  head  4 14 26
  h2  head  4 26 51
  h3  head  4 46 71
  h4  head  4 34 111
  h5  head  4 64 131
  h6  head  4 24 131
  h7  head  4 34 101
  h8  head  4 14 122
  h9  head  4 54 21
  h10  head  4 36 89
END continuous  FILEOUT  head_obs_ref.csv

