# File generated by Flopy version 3.9.1 on 09/05/2025 at 20:14:33.
BEGIN options
  SAVE_FLOWS
  SAVE_SPECIFIC_DISCHARGE
  SAVE_SATURATION
  K33OVERK
END options

BEGIN griddata
  icelltype
    CONSTANT  0
  k  LAYERED
    CONSTANT  3.688738606e-07
    CONSTANT  6.660918645e-05
    CONSTANT  1.49295583e-08
    CONSTANT  2.49166338e-03
    CONSTANT  8.11614508e-11
  k33  LAYERED
    CONSTANT       0.034128167311933
    CONSTANT       0.155031463938775
    CONSTANT       0.37465577424032
    CONSTANT       0.22459671420163
    CONSTANT       0.16605324571800
END griddata

