# File generated by Flopy version 3.9.3 on 10/06/2025 at 13:42:29.
BEGIN options
END options

BEGIN timing
  TDIS6  test_prt.tdis
END timing

BEGIN models
  prt6  test_prt.nam  test_prt
END models

BEGIN exchanges
END exchanges

BEGIN solutiongroup  1
  ems6  test_prt.ems  test_prt
END solutiongroup  1

