# File generated by Flopy version 3.9.5 on 11/03/2025 at 10:09:34.
BEGIN options
END options

BEGIN timing
  TDIS6  test_prt.tdis
END timing

BEGIN models
  prt6  test_prt.nam  test_prt
END models

BEGIN exchanges
END exchanges

BEGIN solutiongroup  1
  ems6  test_prt.ems  test_prt
END solutiongroup  1

