# File generated by Flopy version 3.9.2 on 03/06/2025 at 21:16:04.
BEGIN options
END options

BEGIN griddata
  porosity
    CONSTANT       0.20000000
END griddata

