# File generated by Flopy version 3.9.2 on 04/16/2025 at 15:18:08.
BEGIN options
END options

BEGIN packagedata
  GWFHEAD  FILEIN  \\home\schorppl$\GitHub\ArchPy\examples\11_modflow_coupling\workspace\test.hds
  GWFBUDGET  FILEIN  \\home\schorppl$\GitHub\ArchPy\examples\11_modflow_coupling\workspace\test.cbc
END packagedata

