# File generated by Flopy version 3.9.2 on 03/11/2025 at 14:15:05.
BEGIN options
END options

BEGIN griddata
  porosity
    CONSTANT       0.20000000
END griddata

