# File generated by Flopy version 3.9.3 on 09/16/2025 at 10:11:40.
BEGIN options
  BUDGET  FILEOUT  test_prt.bud
  TRACK  FILEOUT  test_prt.trk
  TRACKCSV  FILEOUT  test_prt.trk.csv
END options

BEGIN period  1
  SAVE  BUDGET  ALL
END period  1

