# File generated by Flopy version 3.9.5 on 11/03/2025 at 10:09:34.
BEGIN options
END options

BEGIN packagedata
  GWFHEAD  FILEIN  M:\GitHub\ArchPy\examples\11_modflow_coupling\workspace\test.hds
  GWFBUDGET  FILEIN  M:\GitHub\ArchPy\examples\11_modflow_coupling\workspace\test.cbc
END packagedata

