# File generated by Flopy version 3.9.2 on 02/20/2025 at 16:07:42.
BEGIN options
  BUDGET  FILEOUT  test_prt.bud
  TRACK  FILEOUT  test_prt.trk
  TRACKCSV  FILEOUT  test_prt.trk.csv
END options

BEGIN period  1
  SAVE  BUDGET  ALL
END period  1

