# File generated by Flopy version 3.9.1 on 02/28/2025 at 08:02:56.
BEGIN options
END options

BEGIN griddata
  porosity
    CONSTANT       0.20000000
END griddata

