# File generated by Flopy version 3.9.5 on 12/11/2025 at 15:16:24.
BEGIN options
END options

BEGIN packagedata
  GWFHEAD  FILEIN  M:\GitHub\ArchPy\examples\11_modflow_coupling\workspace\test.hds
  GWFBUDGET  FILEIN  M:\GitHub\ArchPy\examples\11_modflow_coupling\workspace\test.cbc
END packagedata

