# File generated by Flopy version 3.9.2 on 03/06/2025 at 21:16:03.
BEGIN options
  TIME_UNITS  days
END options

BEGIN dimensions
  NPER  1
END dimensions

BEGIN perioddata
       1.00000000  1       1.00000000
END perioddata

