# File generated by Flopy version 3.9.3 on 09/16/2025 at 10:11:40.
BEGIN options
END options

BEGIN packagedata
  GWFHEAD  FILEIN  C:\Users\emmal\Documents\Github\ArchPy\examples\11_modflow_coupling\workspace\test.hds
  GWFBUDGET  FILEIN  C:\Users\emmal\Documents\Github\ArchPy\examples\11_modflow_coupling\workspace\test.cbc
END packagedata

