# File generated by Flopy version 3.9.3 on 07/23/2025 at 15:50:53.
BEGIN options
END options

BEGIN packagedata
  GWFHEAD  FILEIN  C:\Users\emmal\Documents\Github\ArchPy\examples\11_modflow_coupling\workspace\test.hds
  GWFBUDGET  FILEIN  C:\Users\emmal\Documents\Github\ArchPy\examples\11_modflow_coupling\workspace\test.cbc
END packagedata

