# File generated by Flopy version 3.9.5 on 12/11/2025 at 15:16:24.
BEGIN options
END options

BEGIN griddata
  porosity
    INTERNAL  FACTOR  1.0
         0.16360369       0.18209853       0.17225224       0.14281744       0.11497294       0.19447884       0.20115686       0.17466270       0.24635211       0.21962361       0.22456749       0.19879171       0.23005816       0.20972897       0.19190235       0.15210351       0.14916693       0.12579336       0.15813620       0.17861846
         0.35064981       0.22195649       0.13098863       0.20047540       0.14031114       0.17464777       0.21539506       0.16141668       0.11711168       0.22812826       0.21812175       0.18369149       0.21976528       0.22039484       0.17846922       0.16752823       0.20098917       0.19261534       0.27045039       0.18683257
         0.19635111       0.16354155       0.19622838       0.17726994       0.36731124       0.25647907       0.10265519       0.13462557       0.20086307       0.21952113       0.20911065       0.22586421       0.19662532       0.26500139       0.23308961       0.19691778       0.21811531       0.17848497       0.13429280       0.21135778
         0.23770893       0.29856443       0.30672059       0.20067043       0.18115743       0.16981319       0.14982434       0.13533493       0.24475790       0.21064115       0.11143987       0.10208070       0.25190892       0.19306034       0.15611827       0.16011335       0.16282082       0.21273462       0.22407888       0.22495614
         0.21462275       0.18397806       0.11808137       0.23611522       0.29077003       0.32035697       0.23085688       0.14800280       0.14985319       0.13629978       0.14904890       0.11308859       0.18676956       0.15692760       0.10706771       0.10482536       0.23794947       0.19417256       0.19744894       0.14706396
         0.15005252       0.18412250       0.18587097       0.23639982       0.20058318       0.20706322       0.25428353       0.27531249       0.29803945       0.28456487       0.12320226       0.08857952       0.13892997       0.18234583       0.21871818       0.19545856       0.14864705       0.09116412       0.10647287       0.13591621
         0.22470383       0.18753809       0.19771682       0.13667136       0.16458741       0.22652429       0.22953322       0.14678292       0.13848975       0.22777706       0.24778584       0.17881326       0.19051259       0.24880604       0.11010088       0.10470925       0.16176888       0.17617571       0.22527133       0.20901846
         0.15909536       0.08838617       0.06167010       0.12324942       0.22372181       0.16882717       0.23355875       0.21280409       0.17860153       0.21551698       0.15467563       0.12673801       0.13889203       0.23776063       0.21804978       0.13852967       0.11544165       0.19263338       0.15606928       0.19716689
         0.19957346       0.14342873       0.24265087       0.29941241       0.25971171       0.15467929       0.09309063       0.12129490       0.22103932       0.14217973       0.22611817       0.22607378       0.17316268       0.22525111       0.18459692       0.18796062       0.22247242       0.20519926       0.24344430       0.20992520
         0.16613135       0.20682868       0.14052000       0.15753979       0.27226368       0.21936579       0.17933458       0.18449106       0.15113404       0.17356081       0.13699750       0.20335642       0.25823112       0.16036348       0.12389470       0.22466693       0.25537684       0.21869371       0.16195256       0.15385680
         0.15563849       0.21636691       0.16092111       0.18780214       0.20093767       0.20902043       0.23289781       0.26470093       0.17180256       0.19520683       0.13808865       0.16710178       0.23686156       0.25162626       0.20720212       0.24862143       0.26014181       0.19355730       0.24267826       0.20309409
         0.16694378       0.21551698       0.20539783       0.17456981       0.15504420       0.11972290       0.15988596       0.14574991       0.20234440       0.19292391       0.10024112       0.22533799       0.13324629       0.17755883       0.24119611       0.19801339       0.20540959       0.25247811       0.12998160       0.24435085
         0.10594413       0.16266722       0.16191009       0.16952945       0.17553023       0.17029821       0.16186889       0.18515394       0.10770703       0.20702948       0.14472868       0.18258178       0.15555844       0.16702091       0.19995326       0.12430291       0.20613972       0.18459467       0.18354881       0.18528797
         0.16712825       0.11777405       0.20590793       0.14268872       0.19792088       0.24252277       0.18729937       0.27479645       0.19538631       0.25873908       0.25205566       0.24841442       0.23666328       0.23272525       0.17437208       0.13858053       0.21666358       0.16797433       0.25251317       0.17954058
         0.14805342       0.14248497       0.15178108       0.13333393       0.20591047       0.26012614       0.18493427       0.23394213       0.16120299       0.23428716       0.26534164       0.27586955       0.27652277       0.28170595       0.28779483       0.27193933       0.28189344       0.29846274       0.28135547       0.28988071
         0.29468659       0.25692063       0.27811259       0.23868783       0.16971480       0.11646681       0.21091159       0.19622693       0.19299445       0.19933997       0.18737382       0.10525749       0.17217456       0.19111144       0.10146315       0.08749258       0.22421467       0.24132850       0.21814777       0.19045211
         0.17192892       0.21231823       0.23054873       0.23503322       0.25148772       0.13971165       0.09722083       0.13856106       0.15361833       0.14114540       0.16390975       0.15616602       0.10881421       0.17893029       0.14748005       0.12681104       0.13732436       0.14656400       0.19074141       0.19460819
         0.23548778       0.16197316       0.20881756       0.20024473       0.23965634       0.23891247       0.15059381       0.30124667       0.23295925       0.25627762       0.30135613       0.11921124       0.28212445       0.11882438       0.28487479       0.30236804       0.23762795       0.32985147       0.23824146       0.23822937
         0.36028485       0.31437328       0.36872038       0.33165072       0.20843411       0.36294220       0.25179315       0.20395002       0.17680777       0.21035371       0.15454481       0.14736058       0.09911587       0.14652154       0.09925077       0.17372147       0.14836794       0.16540496       0.15263120       0.13040679
         0.10024831       0.14035154       0.14984843       0.16767738       0.24113546       0.17177337       0.24349961       0.28241523       0.28523936       0.28026166       0.28534535       0.14507131       0.22913396       0.17109590       0.23421586       0.27636648       0.27944288       0.27358100       0.27164865       0.27840044
         0.27511903       0.27268241       0.25489085       0.25583338       0.21855095       0.23611667       0.20365413       0.26603716       0.24398114       0.25339935       0.23514405       0.21955916       0.18300014       0.21267947       0.18273634       0.17015306       0.22634123       0.15181462       0.21486819       0.23591926
         0.11109451       0.16056838       0.04204797       0.10544353       0.17024931       0.06726496       0.03422467       0.18570856       0.23563165       0.20257599       0.19719567       0.20440898       0.21218450       0.20490680       0.23294243       0.25329784       0.15613592       0.18485661       0.25547308       0.25394037
         0.29268689       0.34161919       0.29896219       0.32451804       0.22700762       0.15200901       0.16021203       0.20691773       0.21021439       0.20084167       0.22064586       0.21062060       0.22809393       0.25965017       0.25803781       0.24134406       0.24594251       0.24522750       0.26955920       0.24371879
         0.23065891       0.24232553       0.23548497       0.20997074       0.18493198       0.21611394       0.17044810       0.23680334       0.18811812       0.12157464       0.11523264       0.13739046       0.17840352       0.16615959       0.19977392       0.14886745       0.08664100       0.08784736       0.14366812       0.19925498
         0.18558916       0.16712077       0.19269852       0.20793565       0.11398278       0.07171052       0.19167673       0.18682166       0.22521394       0.31862283       0.24371423       0.22649284       0.22294105       0.22234088       0.29083128       0.22433707       0.24100050       0.27648510       0.22312965       0.16788841
         0.12981154       0.12653673       0.17153111       0.16881435       0.19484548       0.19480441       0.23343107       0.22975655       0.10249926       0.11188175       0.22084543       0.24907140       0.26320564       0.28996071       0.25273103       0.20174226       0.19971886       0.15075848       0.21641423       0.18831527
         0.20032857       0.22265920       0.16604297       0.17885779       0.17197059       0.17467876       0.20957846       0.18501888       0.25382474       0.26311648       0.27797414       0.24384148       0.17960917       0.20490168       0.25479342       0.24154266       0.23529994       0.23308864       0.22098653       0.17277636
         0.15098176       0.18470854       0.11549735       0.09953989       0.12005839       0.12732899       0.12044948       0.14821504       0.19901945       0.20248001       0.18142778       0.21134595       0.23999441       0.28558981       0.29869636       0.25875742       0.28334361       0.29561973       0.18711553       0.12761524
         0.15956827       0.19887019       0.18550592       0.16576594       0.11437199       0.14194256       0.07241451       0.10257766       0.13305289       0.18837767       0.11736008       0.12649696       0.16996819       0.18681745       0.17083116       0.20963179       0.18988350       0.30546721       0.32031415       0.26246657
         0.26564948       0.29151620       0.15662976       0.04393337       0.07775699       0.17701173       0.20164090       0.24386667       0.25133096       0.17154537       0.11720699       0.10479169       0.14425694       0.20844238       0.26083674       0.16150555       0.10400635       0.12618744       0.12260123       0.16605311
         0.12514315       0.14949026       0.19712571       0.15850816       0.15141373       0.15036918       0.21784132       0.21823718       0.27621348       0.14257846       0.14936747       0.17642321       0.23974700       0.19770706       0.18840291       0.11598739       0.15066087       0.17669933       0.17129556       0.11521653
         0.15690322       0.15097279       0.20740308       0.20100555       0.16355086       0.17910654       0.20621087       0.18383229       0.17963313       0.21712007       0.21840271       0.18681454       0.29346873       0.13731362       0.13946083       0.17030205       0.19225765       0.17965618       0.17402667       0.14110966
         0.20892093       0.18062641       0.17828690       0.14291157       0.11867241       0.10486541       0.18198247       0.20229462       0.18800231       0.21083072       0.20031311       0.20565895       0.19098683       0.23753476       0.21833910       0.16687837       0.24078981       0.14536948       0.10826109       0.18706561
         0.18308715       0.21226386       0.16975997       0.15091775       0.18055636       0.15501898       0.13936931       0.13474983       0.09313943       0.15387012       0.19574516       0.15369235       0.19545325       0.20091582       0.16533975       0.15962768       0.14289625       0.21049586       0.22923274       0.21394351
         0.21608228       0.18828549       0.12491203       0.22989805       0.21342911       0.23311726       0.17015286       0.14556067       0.17225191       0.09076971       0.15925453       0.12756722       0.09824408       0.14451870       0.12149476       0.10311157       0.19681168       0.20342159       0.19771326       0.15398847
         0.14159946       0.17585259       0.20826169       0.25040649       0.21066228       0.21111262       0.24068547       0.25051450       0.18203920       0.19059240       0.15558093       0.15799444       0.14600716       0.09792254       0.17886162       0.14375082       0.13816191       0.13649222       0.15099845       0.10034548
         0.18591563       0.19300783       0.18033063       0.12683894       0.16673050       0.23584953       0.24603957       0.23924373       0.18776119       0.23184759       0.24602236       0.21408654       0.14533048       0.23075714       0.20220260       0.20195091       0.16686193       0.12079044       0.12656122       0.15953023
         0.13492732       0.14366841       0.08247527       0.11584701       0.21712707       0.18999604       0.18666329       0.14886018       0.17594254       0.23531317       0.21638358       0.28286316       0.17021636       0.20115895       0.21696865       0.19261870       0.14681580       0.23967299       0.19407088       0.16850923
         0.18462861       0.16517721       0.13875750       0.16889616       0.18237040       0.12247169       0.09058583       0.14799852       0.20294153       0.20395227       0.21133442       0.13446224       0.19613645       0.19592120       0.18213893       0.23508514       0.26334082       0.23828304       0.25242244       0.26586991
         0.22063302       0.22444636       0.26654637       0.21533971       0.22356131       0.20388685       0.18401415       0.17317804       0.19389367       0.20680319       0.25179746       0.18518244       0.17889738       0.15224752       0.13772556       0.14759424       0.20073954       0.19195534       0.16052074       0.11283277
         0.12367705       0.19390201       0.19854769       0.21509712       0.14802911       0.20800984       0.20660029       0.21387763       0.20719311       0.21451782       0.17990119       0.19635667       0.24954147       0.26667121       0.24184682       0.27839927       0.29762191       0.30850269       0.29944642       0.31473101
         0.23310664       0.28863553       0.30202081       0.27021672       0.27103628       0.29835422       0.28384560       0.30615416       0.27862288       0.23172630       0.18356617       0.22300426       0.18405690       0.26715344       0.24212972       0.20465944       0.18071876       0.23303390       0.17567842       0.18920370
         0.16588418       0.16755067       0.17068913       0.17991450       0.16658328       0.15640974       0.18934802       0.14870743       0.15255481       0.14580531       0.15389765       0.14856969       0.13842307       0.13852302       0.16647645       0.16147024       0.14444300       0.15568316       0.14686515       0.13665289
         0.17678389       0.14525748       0.17410700       0.15882281       0.15279016       0.23570443       0.13149275       0.11580690       0.08889996       0.11147723       0.16052255       0.21777109       0.15781624       0.20534846       0.28932561       0.15202560       0.26448706       0.24932812       0.24950018       0.24190809
         0.22619773       0.14864847       0.22711491       0.15980340       0.11977339       0.14560724       0.07739087       0.09270731       0.07013826       0.06275731       0.13653634       0.13647386       0.11862331       0.15636080       0.17380884       0.16901928       0.14717244       0.18510444       0.17389113       0.19838741
         0.18662178       0.16450722       0.19266931       0.18089118       0.15975113       0.14437880       0.16281896       0.17426408       0.17583778       0.21201408       0.13638453       0.11710164       0.13558518       0.22085831       0.16623584       0.16605840       0.16388050       0.15606350       0.19106922       0.15017505
         0.17100671       0.18770566       0.19624976       0.20876129       0.20487237       0.15096401       0.18282683       0.21405036       0.14734249       0.16245859       0.16217669       0.14861520       0.13603279       0.13380399       0.14563882       0.12148459       0.13769941       0.11660979       0.13413375       0.13764847
         0.14551890       0.13195879       0.14514465       0.14261427       0.16492522       0.18065707       0.14667328       0.18282710       0.15529790       0.17246649       0.16912877       0.09282707       0.12116366       0.11509170       0.13930888       0.17491952       0.19052102       0.17727682       0.17183186       0.12893344
         0.16252907       0.16168386       0.19144129       0.16651983       0.15808338       0.19515446       0.17586909       0.19109624       0.21247405       0.17779030       0.17609792       0.20018779       0.14893024       0.16209846       0.14791541       0.17156946       0.17797542       0.18404502       0.18801962       0.15303395
         0.15056469       0.16091230       0.15613877       0.07984254       0.05269794       0.10304291       0.07527171       0.08187218       0.15929109       0.09702101       0.16812105       0.12014401       0.11025441       0.14755354       0.15151254       0.14799390       0.18780942       0.20072804       0.21084750       0.19891374
         0.21764342       0.23040754       0.23928992       0.20421199       0.18929058       0.21391923       0.20394834       0.24096146       0.24929401       0.23825527       0.25092271       0.20853915       0.21293839       0.22513161       0.20191732       0.20559371       0.21778372       0.20850872       0.18144488       0.18853768
         0.16114613       0.12524935       0.11254165       0.12376318       0.18814033       0.11474919       0.10664416       0.12068682       0.16406886       0.17531883       0.15168194       0.16477387       0.20300335       0.17163621       0.23461751       0.18382627       0.10088016       0.13619657       0.15150940       0.21665243
         0.23627817       0.21266999       0.21889012       0.25046374       0.20393933       0.18673699       0.17621955       0.18772338       0.21000908       0.16396222       0.16396377       0.19362484       0.18835991       0.20637752       0.22051331       0.20335692       0.22512705       0.21909860       0.22254345       0.22031046
         0.22798279       0.23512273       0.21161205       0.21862287       0.19899486       0.19325143       0.16565521       0.19479572       0.18155111       0.15066371       0.11031553       0.15664037       0.15459329       0.13521599       0.16058661       0.18115170       0.14882354       0.14145460       0.10949483       0.11913918
         0.15748391       0.16509319       0.17312097       0.16976949       0.13180816       0.17024637       0.18534250       0.13749591       0.14521384       0.21006211       0.15985138       0.21748107       0.22835034       0.18913889       0.23044436       0.17616649       0.21716667       0.19005930       0.16420033       0.21246302
         0.20265223       0.17336398       0.13351878       0.14259429       0.15468214       0.17622103       0.20818257       0.18658525       0.15089869       0.17783278       0.19717759       0.18035131       0.16416595       0.24011273       0.18748504       0.20858186       0.19881040       0.08601091       0.15596251       0.14395798
         0.21356555       0.20243852       0.15547735       0.19109291       0.18252208       0.14353250       0.15452465       0.16437755       0.15172503       0.17859860       0.21659444       0.19760565       0.19334814       0.16087068       0.23537214       0.19900330       0.15427463       0.19704134       0.24071869       0.21720872
         0.13579581       0.15796180       0.10945853       0.13529966       0.18922526       0.14332393       0.14754612       0.16554168       0.17743596       0.13205789       0.15701147       0.17707174       0.12562846       0.16175066       0.21869358       0.15465371       0.18050967       0.20530492       0.18637029       0.15741172
         0.11378312       0.11707815       0.21894014       0.22265595       0.14258916       0.14631503       0.11133378       0.14214032       0.19003857       0.18943208       0.16543755       0.16994752       0.16800402       0.16935606       0.14770972       0.17734614       0.10568058       0.18226213       0.24600593       0.19550575
         0.17075508       0.16974703       0.14269622       0.09830211       0.13328348       0.20916423       0.24745747       0.25071172       0.21576854       0.17417581       0.18495821       0.12961516       0.18440908       0.18685566       0.21603213       0.16835680       0.11378914       0.12578277       0.17689824       0.18729195
         0.11979290       0.10196405       0.11996581       0.23414287       0.18939010       0.11994796       0.14207771       0.16106286       0.11969354       0.07613953       0.15627332       0.14640532       0.13823564       0.17586524       0.14608649       0.15768044       0.13861318       0.10254034       0.15022529       0.13118871
         0.11498272       0.13414613       0.18438368       0.19981169       0.12166713       0.10771246       0.10652197       0.13466166       0.11019722       0.12325148       0.13251243       0.11864225       0.11830234       0.10466175       0.19028652       0.14863588       0.10566367       0.16077456       0.17547069       0.21336893
         0.15064260       0.06681412       0.06461698       0.07617194       0.09514144       0.11879492       0.13427712       0.13518735       0.09799434       0.11131982       0.08521459       0.06421048       0.06727941       0.10237129       0.12641039       0.09290610       0.10517807       0.08019682       0.12169408       0.12033166
         0.11313904       0.14100882       0.20200268       0.21586117       0.16915514       0.09384156       0.06723627       0.06253839       0.08976957       0.10860252       0.07008087       0.08376688       0.08473084       0.08314695       0.08812497       0.05102886       0.05373213       0.10716091       0.15705684       0.13333677
         0.09217951       0.09880164       0.08112598       0.09564825       0.12176011       0.13522828       0.20280939       0.21605646       0.19573100       0.13485718       0.11440914       0.08642757       0.07914524       0.08599489       0.05030886       0.06773790       0.07619670       0.05703327       0.06504535       0.05175541
         0.07015513       0.14562074       0.19784905       0.16943571       0.15153994       0.13613412       0.13596287       0.12574958       0.15227909       0.15005192       0.20043143       0.24030351       0.20633665       0.16917396       0.10538349       0.09694526       0.06076497       0.05716811       0.05002170       0.05708703
         0.06622554       0.06286199       0.07885608       0.07143696       0.11749282       0.19105403       0.19697055       0.18740492       0.18330771       0.17827990       0.18872273       0.18245245       0.21621665       0.18076767       0.19482960       0.23714017       0.24594612       0.17559882       0.11899849       0.12141564
         0.09908988       0.05056358       0.05000000       0.05199468       0.05536844       0.07091074       0.09763863       0.12037761       0.17812501       0.24464762       0.22265278       0.18143861       0.16737943       0.18139898       0.22451250       0.24128894       0.26498367       0.21064940       0.15854572       0.17669915
         0.25614728       0.20888377       0.14735253       0.16943632       0.14737102       0.05936413       0.05545651       0.06784313       0.05017924       0.06475575       0.10143395       0.13485445       0.20276822       0.22670278       0.17415682       0.18187400       0.18635657       0.12089618       0.14778085       0.11808753
         0.13546229       0.17633645       0.14302854       0.14892481       0.21653564       0.23676874       0.16627211       0.17846528       0.26696244       0.29744466       0.18087867       0.13868640       0.16586801       0.24784354       0.21989366       0.17338430       0.19109865       0.15370114       0.08273525       0.09880502
         0.08876084       0.05058584       0.05345182       0.08032614       0.10739402       0.15523951       0.16423652       0.14442704       0.15152434       0.13565177       0.16076194       0.16590209       0.14921430       0.12812472       0.16540649       0.17854223       0.13030942       0.17782074       0.18180225       0.19214009
         0.18589965       0.20428286       0.18538158       0.18443332       0.16584053       0.17029032       0.14789517       0.15467207       0.13563586       0.13406176       0.13101242       0.12771436       0.13062392       0.14703573       0.12964907       0.14587100       0.12123492       0.13323153       0.12355856       0.11164850
         0.13099523       0.11595887       0.12503530       0.10672164       0.10661449       0.14495954       0.11317704       0.10501045       0.12632117       0.12023153       0.11281914       0.15000186       0.12936600       0.15144167       0.22122170       0.32665505       0.19330931       0.25722048       0.19624725       0.23455842
         0.25881289       0.27230885       0.26175028       0.25021150       0.32816706       0.26626385       0.29834517       0.30491485       0.26451477       0.29436941       0.29782991       0.25060158       0.28494704       0.24138150       0.17675020       0.12043545       0.20222042       0.14155480       0.18160205       0.13116646
         0.11771720       0.10661055       0.11976424       0.11494714       0.10645069       0.12449027       0.11157862       0.11028002       0.12159965       0.11297801       0.11550467       0.12068536       0.11182926       0.11763352       0.13876497       0.14532445       0.12090141       0.11559783       0.11296565       0.11602023
         0.11454711       0.10819308       0.11472057       0.10843852       0.16376998       0.14305350       0.12555575       0.12731612       0.11320934       0.11783835       0.12034739       0.24298486       0.22911608       0.21047181       0.14774613       0.11787251       0.12987192       0.08507431       0.05911006       0.06162011
         0.07144736       0.06463224       0.08875576       0.09939123       0.13358397       0.15340021       0.17468946       0.14075727       0.13562665       0.12309571       0.10986957       0.11593396       0.11577027       0.12311309       0.13955260       0.14902486       0.15943896       0.17360518       0.17926977       0.14103597
         0.15830941       0.19712238       0.22746439       0.22321483       0.22336212       0.25905357       0.27133722       0.26822138       0.27511030       0.20211802       0.24248962       0.27122339       0.28446719       0.29633778       0.28301853       0.26524529       0.22501663       0.24803035       0.21500728       0.26651689
         0.24810275       0.21548739       0.20288001       0.20868710       0.17760776       0.18039336       0.14910751       0.18165588       0.13840852       0.17934656       0.14010845       0.12636910       0.11834757       0.12215666       0.13037260       0.15631483       0.13944381       0.14256417       0.14297509       0.12907579
         0.13396375       0.14578913       0.15598332       0.13241292       0.12387842       0.14516061       0.13339156       0.10302182       0.11468359       0.10608066       0.10808387       0.14866266       0.14606100       0.16462822       0.16262629       0.12488670       0.10588241       0.13980525       0.11038957       0.10658955
         0.11509618       0.10362244       0.11286527       0.12081575       0.12244626       0.12294484       0.13066255       0.10561155       0.11097946       0.10951182       0.11004631       0.12069588       0.13244210       0.11777166       0.13299792       0.12416221       0.11359550       0.11776012       0.11268450       0.11223373
         0.12095598       0.11134564       0.24887095       0.20122581       0.16799411       0.08714983       0.11239014       0.13569073       0.06896603       0.08022078       0.07392110       0.06992754       0.05137671       0.08439888       0.10726437       0.13380961       0.12755688       0.10361531       0.14064000       0.15396998
         0.16387931       0.16305665       0.13671997       0.11299818       0.12449434       0.14118390       0.17772222       0.13337765       0.15480651       0.18184254       0.17439474       0.19095589       0.17923081       0.13526343       0.10920600       0.13669133       0.10933913       0.16365394       0.11409693       0.10731679
         0.10630406       0.10283597       0.10140136       0.10833269       0.12567345       0.11319807       0.12419396       0.09146974       0.09618415       0.12684501       0.11502327       0.10176994       0.10891099       0.19436087       0.20874644       0.13202901       0.08800703       0.14078091       0.15913836       0.09529255
         0.10139802       0.07930972       0.07861490       0.06444820       0.10462351       0.12067470       0.14878391       0.14709160       0.08717025       0.11068732       0.14769284       0.12458952       0.10291978       0.13123612       0.12029729       0.06467130       0.06550264       0.14421451       0.16862868       0.09657829
         0.14654024       0.20837695       0.18380171       0.17420301       0.11362527       0.12370038       0.13684578       0.10820506       0.11229899       0.16918088       0.20327079       0.14792972       0.08263349       0.09444473       0.11381816       0.11179513       0.08785033       0.08618523       0.07745226       0.05580030
         0.08123322       0.16752275       0.14502089       0.13095395       0.14692415       0.16851536       0.19482176       0.20872832       0.10005767       0.13658912       0.14823697       0.13065783       0.10250265       0.19798806       0.25769177       0.16141576       0.08487449       0.08522992       0.12167602       0.11481814