# File generated by Flopy version 3.9.5 on 11/03/2025 at 10:09:34.
BEGIN options
  EXIT_SOLVE_TOLERANCE  1.00000000E-05
  EXTEND_TRACKING
  DRAPE
END options

BEGIN dimensions
  NRELEASEPTS  100
END dimensions

BEGIN packagedata
  1  3 212      35.92543652      72.44759567     -11.86128915
  2  2 173      11.63966601      63.69152638      -6.66773015
  3  2 171     -11.02349967      54.61820282      -8.27495523
  4  2 124      -8.56478926      66.10201506      -8.38889150
  5  3 206       8.54345864      55.57513614      -9.93513253
  6  4 27     -26.22161388      84.13910499     -13.83972869
  7  4 152      25.06807086      80.29653492     -14.08461610
  8  3 124      -2.17018297      71.04961225     -11.85795548
  9  4 128      20.53482235      87.33942655     -14.26053623
  10  3 204      -1.94212065      53.51550330     -10.17827263
  11  2 51     -20.74608220      79.72694208      -6.83094018
  12  4 325      23.87392259      62.20537662     -13.48155835
  13  3 74     -23.88700783      71.19813991     -10.99687389
  14  1 52     -13.44012955      86.84338131      -6.35879012
  15  1 325      26.26586185      61.32410721      -6.03485125
  16  3 323      15.07217177      54.32175174      -9.97451532
  17  4 122     -19.13729162      59.83996500     -13.42222347
  18  3 323      17.66394718      52.07433929     -10.12040937
  19  4 76     -12.42726850      82.50314619     -12.74976744
  20  3 99     -16.64554854      70.25355734     -10.19316437
  21  2 325      25.60744690      58.53979099      -7.75884904
  22  4 103      10.64521049      86.49470578     -12.84374052
  23  3 28     -16.37756168      88.01198328     -10.53541702
  24  4 101      -2.09147807      80.55437380     -13.90488994
  25  4 101      -2.47396617      79.16854796     -13.49877948
  26  3 323      13.98690264      54.89031939      -9.89398297
  27  2 75     -15.31086594      75.25266672      -6.57584758
  28  2 325      25.66042382      61.40258927      -8.93936431
  29  4 127      19.30278470      83.66790406     -13.40793782
  30  3 150      14.05217498      76.41342966     -11.46565240
  31  2 323      15.16337492      52.34440146      -7.75265671
  32  4 173       5.33139816      60.67697950     -13.37537570
  33  2 52     -15.16368958      82.03892327      -9.02271202
  34  4 123     -13.03386899      64.71681497     -14.70906180
  35  2 211      32.22545155      68.71706375      -6.99380630
  36  4 175      22.75456442      74.02868767     -13.85279022
  37  2 325      27.80756732      64.48603036      -6.62098428
  38  4 53      -9.55006127      88.37197776     -12.25988602
  39  3 512      41.95608137      50.66762337     -10.75133675
  40  4 28     -14.82587813      89.93158424     -12.92750794
  41  3 122     -17.96286941      60.07671160     -11.34092142
  42  2 151      18.23988325      73.54849562      -7.75223091
  43  1 102       5.40649923      82.71163687      -6.25143218
  44  2 512      41.37071678      50.79394150      -6.84186234
  45  4 3     -26.12216128      89.33099304     -12.40769784
  46  3 153      35.78673159      84.34562531      -9.41834545
  47  2 223      42.90025343      76.72761855      -8.76328183
  48  3 437      38.16785464      61.81646489     -10.97720802
  49  1 53      -6.13875952      89.32527750      -6.19476872
  50  4 326      37.49597686      70.02470748     -12.87317565
  51  4 151      18.96807247      76.20844948     -12.57340649
  52  2 76     -12.15129397      78.86342053      -8.43065439
  53  2 153      35.38576603      87.61294616      -8.11272275
  54  2 172      -3.03498785      57.12420648      -6.85878795
  55  4 174      15.83052506      64.62964198     -14.74278452
  56  3 326      34.63896799      62.38790469     -11.00293016
  57  3 175      22.13041134      68.70176884     -10.19308894
  58  4 150      11.97175667      75.63269281     -13.12190810
  59  4 436      33.70832391      59.16092053     -12.87672956
  60  3 123     -12.19567234      63.22822148     -11.19085200
  61  4 205       3.21315792      55.47561567     -14.12231380
  62  2 52     -14.86475264      84.83490556      -7.46237180
  63  3 204      -3.06223862      53.01742218      -9.79515239
  64  1 174      13.46807367      66.74111695      -6.28575930
  65  3 177      34.13105083      81.41266640     -11.91422083
  66  4 100      -5.54198444      73.36319387     -12.74260565
  67  3 323      11.22826405      54.54587008     -11.28557196
  68  2 170     -10.30796707      50.65455200      -7.39176570
  69  4 102       8.27571868      85.05010481     -13.51535444
  70  4 151      18.33836756      74.44026323     -12.88574859
  71  4 128      25.67157168      85.27027288     -12.66333628
  72  3 488      42.67217353      58.57240244     -11.64523181
  73  4 149       4.30549288      69.29435133     -13.96360889
  74  4 124      -7.98471944      66.19000103     -14.03602108
  75  4 128      23.51299803      89.47720244     -12.77416085
  76  2 208      22.27040342      65.86398637      -6.75728336
  77  3 324      23.04464239      60.85010040     -10.40588993
  78  4 325      30.84280346      61.64874135     -13.23909294
  79  2 146     -14.69445744      56.29603841      -9.10167020
  80  4 207      17.95435578      65.71324319     -12.51134489
  81  4 53      -8.01440457      88.24565679     -12.46766278
  82  3 145     -24.52901028      51.86623549     -11.02475746
  83  3 323      14.88948220      50.38941686     -11.27948205
  84  2 53      -2.43669971      89.11861272      -7.28979121
  85  4 327      40.26886577      70.83114041     -13.88486131
  86  4 180      39.62578422      79.14034711     -13.31363279
  87  2 326      36.66179695      65.35713365      -7.06522191
  88  2 208      24.44054314      65.10475803      -7.24709836
  89  3 149       2.54028884      70.39396411     -11.81358391
  90  3 172      -1.83783660      58.57121536      -9.96846495
  91  2 127      12.02939858      82.02484101      -7.17968934
  92  2 170     -14.57422877      52.43794668      -7.03433899
  93  2 175      24.55553522      74.34775728      -8.92542237
  94  4 150      11.56888209      69.86948744     -12.35820308
  95  4 436      28.68083575      53.75693076     -14.79720256
  96  1 102       5.97673157      85.11733090      -6.00225324
  97  3 75     -22.67789557      76.71111043     -11.86266422
  98  3 147      -9.28967544      63.66190157     -10.79573150
  99  2 101      -2.84583314      75.14721288      -8.18021574
  100  2 100     -10.98542368      74.12412299      -7.40466535
END packagedata

BEGIN period  1
  FIRST
END period  1

