# File generated by Flopy version 3.9.2 on 02/25/2025 at 15:37:31.
BEGIN options
END options

BEGIN griddata
  porosity
    CONSTANT       0.20000000
END griddata

