# File generated by Flopy version 3.9.2 on 02/20/2025 at 16:07:42.
BEGIN options
END options

BEGIN griddata
  porosity
    CONSTANT       0.20000000
END griddata

