# File generated by Flopy version 3.9.2 on 02/18/2025 at 10:11:04.
BEGIN options
END options

BEGIN griddata
  porosity
    CONSTANT       0.20000000
END griddata

