# File generated by Flopy version 3.9.2 on 02/25/2025 at 15:37:30.
BEGIN options
END options

BEGIN packages
  DIS6  test_prt.dis  dis
  MIP6  test_prt.mip  mip
  PRP6  test_prt.prp  prp
  OC6  test_prt.oc  oc
  FMI6  test_prt.fmi  fmi
END packages

