# File generated by Flopy version 3.9.5 on 12/11/2025 at 15:14:55.
BEGIN options
  XORIGIN       0.00000000
  YORIGIN       0.00000000
END options

BEGIN dimensions
  NLAY  8
  NROW  70
  NCOL  140
END dimensions

BEGIN griddata
  delr
    INTERNAL  FACTOR  1.0
         1.50000000       1.50000000       1.50000000       1.50000000       1.50000000       1.50000000       1.50000000       1.50000000       1.50000000       1.50000000       1.50000000       1.50000000       1.50000000       1.50000000       1.50000000       1.50000000       1.50000000       1.50000000       1.50000000       1.50000000       1.50000000       1.50000000       1.50000000       1.50000000       1.50000000       1.50000000       1.50000000       1.50000000       1.50000000       1.50000000       1.50000000       1.50000000       1.50000000       1.50000000       1.50000000       1.50000000       1.50000000       1.50000000       1.50000000       1.50000000       1.50000000       1.50000000       1.50000000       1.50000000       1.50000000       1.50000000       1.50000000       1.50000000       1.50000000       1.50000000       1.50000000       1.50000000       1.50000000       1.50000000       1.50000000       1.50000000       1.50000000       1.50000000       1.50000000       1.50000000       1.50000000       1.50000000       1.50000000       1.50000000       1.50000000       1.50000000       1.50000000       1.50000000       1.50000000       1.50000000       1.50000000       1.50000000       1.50000000       1.50000000       1.50000000       1.50000000       1.50000000       1.50000000       1.50000000       1.50000000       1.50000000       1.50000000       1.50000000       1.50000000       1.50000000       1.50000000       1.50000000       1.50000000       1.50000000       1.50000000       1.50000000       1.50000000       1.50000000       1.50000000       1.50000000       1.50000000       1.50000000       1.50000000       1.50000000       1.50000000       1.50000000       1.50000000       1.50000000       1.50000000       1.50000000       1.50000000       1.50000000       1.50000000       1.50000000       1.50000000       1.50000000       1.50000000       1.50000000       1.50000000       1.50000000       1.50000000       1.50000000       1.50000000       1.50000000       1.50000000       1.50000000       1.50000000       1.50000000       1.50000000       1.50000000       1.50000000       1.50000000       1.50000000       1.50000000       1.50000000       1.50000000       1.50000000       1.50000000       1.50000000       1.50000000       1.50000000       1.50000000       1.50000000       1.50000000       1.50000000
  delc
    INTERNAL  FACTOR  1.0
         1.50000000       1.50000000       1.50000000       1.50000000       1.50000000       1.50000000       1.50000000       1.50000000       1.50000000       1.50000000       1.50000000       1.50000000       1.50000000       1.50000000       1.50000000       1.50000000       1.50000000       1.50000000       1.50000000       1.50000000       1.50000000       1.50000000       1.50000000       1.50000000       1.50000000       1.50000000       1.50000000       1.50000000       1.50000000       1.50000000       1.50000000       1.50000000       1.50000000       1.50000000       1.50000000       1.50000000       1.50000000       1.50000000       1.50000000       1.50000000       1.50000000       1.50000000       1.50000000       1.50000000       1.50000000       1.50000000       1.50000000       1.50000000       1.50000000       1.50000000       1.50000000       1.50000000       1.50000000       1.50000000       1.50000000       1.50000000       1.50000000       1.50000000       1.50000000       1.50000000       1.50000000       1.50000000       1.50000000       1.50000000       1.50000000       1.50000000       1.50000000       1.50000000       1.50000000       1.50000000
  top
    INTERNAL  FACTOR  1.0
        -5.94999981      -5.94999981      -5.94999981      -5.94999981      -5.94999981      -5.94999981      -5.94999981      -5.94999981      -5.94999981      -5.94999981      -5.94999981      -5.94999981      -5.94999981      -5.94999981      -5.94999981      -5.94999981      -5.94999981      -5.94999981      -5.94999981      -5.94999981      -5.94999981      -5.93999958      -5.93999958      -5.93999958      -5.93999958      -5.93999958      -5.93999958      -5.94999981      -5.94999981      -5.94999981      -5.94999981      -5.94999981      -5.94999981      -5.94999981      -5.94999981      -5.94999981      -5.94999981      -5.94999981      -5.94999981      -5.94999981      -5.94999981      -5.94999981      -5.94999981      -5.94999981      -5.94999981      -5.94999981      -5.94999981      -5.94999981      -5.94999981      -5.94999981      -5.94999981      -5.94999981      -5.94999981      -5.94999981      -5.94999981      -5.94999981      -5.94999981      -5.94999981      -5.94999981      -5.94999981      -5.93999958      -5.93999958      -5.93999958      -5.93999958      -5.93999958      -5.93999958      -5.93999958      -5.94999981      -5.94999981      -5.94999981      -5.94999981      -5.94999981      -5.94999981      -5.94999981      -5.94999981      -5.94999981      -5.94999981      -5.94999981      -5.94999981      -5.94999981      -5.94999981      -5.94999981      -5.94999981      -5.94999981      -5.94999981      -5.94999981      -5.94999981      -5.94999981      -5.94999981      -5.94999981      -5.94999981      -5.94999981      -5.94999981      -5.94999981      -5.94999981      -5.94999981      -5.94999981      -5.94999981      -5.94999981      -5.94999981      -5.94999981      -5.94999981      -5.94999981      -5.94999981      -5.94999981      -5.94999981      -5.94999981      -5.94999981      -5.94999981      -5.94999981      -5.94999981      -5.94999981      -5.94999981      -5.94999981      -5.94999981      -5.94999981      -5.94999981      -5.94999981      -5.94999981      -5.94999981      -5.94999981      -5.94999981      -5.94999981      -5.94999981      -5.94999981      -5.94999981      -5.94999981      -5.94999981      -5.94999981      -5.94999981      -5.94999981      -5.94999981      -5.94999981      -5.94999981      -5.94999981      -5.94999981      -5.94999981      -5.94999981      -5.94999981      -5.94999981
        -5.94999981      -5.94999981      -5.94999981      -5.94999981      -5.94999981      -5.94999981      -5.94999981      -5.94999981      -5.94999981      -5.94999981      -5.94999981      -5.94999981      -5.94999981      -5.94999981      -5.94999981      -5.94999981      -5.94999981      -5.94999981      -5.94999981      -5.94999981      -5.94999981      -5.93999958      -5.93999958      -5.93999958      -5.93999958      -5.93999958      -5.93999958      -5.93999958      -5.94999981      -5.94999981      -5.94999981      -5.94999981      -5.94999981      -5.94999981      -5.94999981      -5.94999981      -5.94999981      -5.94999981      -5.94999981      -5.94999981      -5.94999981      -5.94999981      -5.94999981      -5.94999981      -5.94999981      -5.94999981      -5.94999981      -5.94999981      -5.94999981      -5.94999981      -5.94999981      -5.94999981      -5.94999981      -5.94999981      -5.94999981      -5.94999981      -5.94999981      -5.94999981      -5.94999981      -5.94999981      -5.94999981      -5.94999981      -5.93999958      -5.93999958      -5.93999958      -5.93999958      -5.93999958      -5.94999981      -5.94999981      -5.94999981      -5.94999981      -5.94999981      -5.94999981      -5.94999981      -5.94999981      -5.94999981      -5.94999981      -5.94999981      -5.94999981      -5.94999981      -5.94999981      -5.94999981      -5.94999981      -5.94999981      -5.94999981      -5.94999981      -5.94999981      -5.94999981      -5.94999981      -5.94999981      -5.94999981      -5.94999981      -5.94999981      -5.94999981      -5.94999981      -5.94999981      -5.94999981      -5.94999981      -5.94999981      -5.94999981      -5.94999981      -5.94999981      -5.94999981      -5.94999981      -5.94999981      -5.94999981      -5.94999981      -5.94999981      -5.94999981      -5.94999981      -5.94999981      -5.94999981      -5.94999981      -5.94999981      -5.94999981      -5.94999981      -5.94999981      -5.94999981      -5.94999981      -5.94999981      -5.94999981      -5.94999981      -5.94999981      -5.94999981      -5.94999981      -5.94999981      -5.94999981      -5.94999981      -5.94999981      -5.94999981      -5.94999981      -5.94999981      -5.94999981      -5.94999981      -5.94999981      -5.94999981      -5.94999981      -5.94999981      -5.94999981      -5.94999981
        -5.94999981      -5.94999981      -5.94999981      -5.94999981      -5.94999981      -5.94999981      -5.94999981      -5.94999981      -5.94999981      -5.94999981      -5.94999981      -5.94999981      -5.94999981      -5.94999981      -5.94999981      -5.94999981      -5.94999981      -5.94999981      -5.94999981      -5.94999981      -5.93999958      -5.93999958      -5.93999958      -5.93999958      -5.93999958      -5.93999958      -5.93999958      -5.93999958      -5.94999981      -5.94999981      -5.94999981      -5.94999981      -5.94999981      -5.94999981      -5.94999981      -5.94999981      -5.94999981      -5.94999981      -5.94999981      -5.94999981      -5.94999981      -5.94999981      -5.94999981      -5.94999981      -5.94999981      -5.94999981      -5.94999981      -5.94999981      -5.94999981      -5.94999981      -5.94999981      -5.94999981      -5.94999981      -5.94999981      -5.94999981      -5.94999981      -5.94999981      -5.94999981      -5.94999981      -5.94999981      -5.94999981      -5.94999981      -5.94999981      -5.93999958      -5.93999958      -5.93999958      -5.93999958      -5.94999981      -5.94999981      -5.94999981      -5.94999981      -5.94999981      -5.94999981      -5.94999981      -5.94999981      -5.94999981      -5.94999981      -5.94999981      -5.94999981      -5.94999981      -5.94999981      -5.94999981      -5.94999981      -5.94999981      -5.94999981      -5.94999981      -5.94999981      -5.94999981      -5.94999981      -5.94999981      -5.94999981      -5.94999981      -5.94999981      -5.94999981      -5.94999981      -5.94999981      -5.94999981      -5.94999981      -5.94999981      -5.94999981      -5.94999981      -5.94999981      -5.94999981      -5.94999981      -5.94999981      -5.94999981      -5.94999981      -5.94999981      -5.94999981      -5.94999981      -5.94999981      -5.94999981      -5.94999981      -5.94999981      -5.94999981      -5.94999981      -5.94999981      -5.94999981      -5.94999981      -5.94999981      -5.94999981      -5.94999981      -5.94999981      -5.94999981      -5.94999981      -5.94999981      -5.94999981      -5.94999981      -5.94999981      -5.94999981      -5.94999981      -5.94999981      -5.94999981      -5.94999981      -5.94999981      -5.94999981      -5.94999981      -5.94999981      -5.94999981      -5.94999981
        -5.94999981      -5.94999981      -5.94999981      -5.94999981      -5.94999981      -5.94999981      -5.94999981      -5.94999981      -5.94999981      -5.94999981      -5.94999981      -5.94999981      -5.94999981      -5.94999981      -5.94999981      -5.94999981      -5.94999981      -5.94999981      -5.94999981      -5.94999981      -5.93999958      -5.93999958      -5.93999958      -5.93999958      -5.93999958      -5.93999958      -5.93999958      -5.93999958      -5.94999981      -5.94999981      -5.94999981      -5.94999981      -5.94999981      -5.94999981      -5.94999981      -5.94999981      -5.94999981      -5.94999981      -5.94999981      -5.94999981      -5.94999981      -5.94999981      -5.94999981      -5.94999981      -5.94999981      -5.94999981      -5.94999981      -5.94999981      -5.94999981      -5.94999981      -5.94999981      -5.94999981      -5.94999981      -5.94999981      -5.94999981      -5.94999981      -5.94999981      -5.94999981      -5.94999981      -5.94999981      -5.94999981      -5.94999981      -5.94999981      -5.93999958      -5.93999958      -5.93999958      -5.93999958      -5.94999981      -5.94999981      -5.94999981      -5.94999981      -5.94999981      -5.94999981      -5.94999981      -5.94999981      -5.94999981      -5.94999981      -5.94999981      -5.94999981      -5.94999981      -5.94999981      -5.94999981      -5.94999981      -5.94999981      -5.94999981      -5.94999981      -5.94999981      -5.94999981      -5.94999981      -5.94999981      -5.94999981      -5.94999981      -5.94999981      -5.94999981      -5.94999981      -5.94999981      -5.94999981      -5.94999981      -5.94999981      -5.94999981      -5.94999981      -5.94999981      -5.94999981      -5.94999981      -5.94999981      -5.94999981      -5.94999981      -5.94999981      -5.94999981      -5.94999981      -5.94999981      -5.94999981      -5.94999981      -5.94999981      -5.94999981      -5.94999981      -5.94999981      -5.94999981      -5.94999981      -5.94999981      -5.94999981      -5.94999981      -5.94999981      -5.94999981      -5.94999981      -5.94999981      -5.94999981      -5.94999981      -5.94999981      -5.94999981      -5.94999981      -5.94999981      -5.94999981      -5.94999981      -5.94999981      -5.94999981      -5.94999981      -5.94999981      -5.94999981      -5.94999981
        -5.94999981      -5.94999981      -5.94999981      -5.94999981      -5.94999981      -5.94999981      -5.94999981      -5.94999981      -5.94999981      -5.94999981      -5.94999981      -5.94999981      -5.94999981      -5.94999981      -5.94999981      -5.94999981      -5.94999981      -5.94999981      -5.94999981      -5.93999958      -5.93999958      -5.93999958      -5.93999958      -5.93999958      -5.93999958      -5.93999958      -5.93999958      -5.93999958      -5.94999981      -5.94999981      -5.94999981      -5.94999981      -5.94999981      -5.94999981      -5.94999981      -5.94999981      -5.94999981      -5.94999981      -5.94999981      -5.94999981      -5.94999981      -5.94999981      -5.94999981      -5.94999981      -5.94999981      -5.94999981      -5.94999981      -5.94999981      -5.94999981      -5.94999981      -5.94999981      -5.94999981      -5.94999981      -5.94999981      -5.94999981      -5.94999981      -5.94999981      -5.94999981      -5.94999981      -5.94999981      -5.94999981      -5.94999981      -5.94999981      -5.93999958      -5.93999958      -5.93999958      -5.93999958      -5.94999981      -5.94999981      -5.94999981      -5.94999981      -5.94999981      -5.94999981      -5.94999981      -5.93999958      -5.93999958      -5.94999981      -5.94999981      -5.94999981      -5.94999981      -5.94999981      -5.94999981      -5.94999981      -5.94999981      -5.94999981      -5.94999981      -5.94999981      -5.94999981      -5.94999981      -5.94999981      -5.94999981      -5.94999981      -5.94999981      -5.94999981      -5.94999981      -5.94999981      -5.94999981      -5.94999981      -5.94999981      -5.94999981      -5.94999981      -5.94999981      -5.93999958      -5.93999958      -5.93999958      -5.94999981      -5.94999981      -5.94999981      -5.94999981      -5.94999981      -5.94999981      -5.94999981      -5.94999981      -5.94999981      -5.94999981      -5.94999981      -5.94999981      -5.94999981      -5.94999981      -5.94999981      -5.94999981      -5.94999981      -5.94999981      -5.94999981      -5.94999981      -5.94999981      -5.94999981      -5.94999981      -5.94999981      -5.94999981      -5.94999981      -5.94999981      -5.94999981      -5.94999981      -5.94999981      -5.94999981      -5.94999981      -5.94999981      -5.94999981      -5.94999981
        -5.94999981      -5.94999981      -5.94999981      -5.94999981      -5.94999981      -5.94999981      -5.94999981      -5.94999981      -5.94999981      -5.94999981      -5.94999981      -5.94999981      -5.94999981      -5.94999981      -5.94999981      -5.94999981      -5.94999981      -5.94999981      -5.93999958      -5.93999958      -5.93999958      -5.93999958      -5.93999958      -5.93999958      -5.93999958      -5.93999958      -5.93999958      -5.93999958      -5.94999981      -5.94999981      -5.94999981      -5.94999981      -5.94999981      -5.94999981      -5.94999981      -5.94999981      -5.94999981      -5.94999981      -5.94999981      -5.94999981      -5.94999981      -5.94999981      -5.94999981      -5.94999981      -5.94999981      -5.94999981      -5.94999981      -5.94999981      -5.94999981      -5.94999981      -5.94999981      -5.94999981      -5.94999981      -5.94999981      -5.94999981      -5.94999981      -5.94999981      -5.94999981      -5.94999981      -5.94999981      -5.94999981      -5.94999981      -5.94999981      -5.94999981      -5.94999981      -5.94999981      -5.94999981      -5.94999981      -5.94999981      -5.94999981      -5.94999981      -5.94999981      -5.94999981      -5.94999981      -5.94999981      -5.94999981      -5.94999981      -5.94999981      -5.94999981      -5.94999981      -5.94999981      -5.94999981      -5.94999981      -5.94999981      -5.94999981      -5.94999981      -5.94999981      -5.94999981      -5.94999981      -5.94999981      -5.94999981      -5.94999981      -5.94999981      -5.94999981      -5.94999981      -5.94999981      -5.94999981      -5.94999981      -5.94999981      -5.94999981      -5.94999981      -5.93999958      -5.93999958      -5.93999958      -5.93999958      -5.93999958      -5.93999958      -5.93999958      -5.93999958      -5.93999958      -5.94999981      -5.94999981      -5.94999981      -5.94999981      -5.94999981      -5.94999981      -5.94999981      -5.94999981      -5.94999981      -5.94999981      -5.94999981      -5.94999981      -5.94999981      -5.94999981      -5.94999981      -5.94999981      -5.94999981      -5.94999981      -5.94999981      -5.94999981      -5.94999981      -5.94999981      -5.94999981      -5.94999981      -5.94999981      -5.94999981      -5.94999981      -5.94999981      -5.94999981      -5.94999981
        -5.94999981      -5.94999981      -5.94999981      -5.94999981      -5.94999981      -5.94999981      -5.94999981      -5.94999981      -5.94999981      -5.94999981      -5.94999981      -5.94999981      -5.94999981      -5.94999981      -5.94999981      -5.94999981      -5.94999981      -5.94999981      -5.93999958      -5.93999958      -5.93999958      -5.93999958      -5.93999958      -5.93999958      -5.93999958      -5.93999958      -5.93999958      -5.93999958      -5.94999981      -5.94999981      -5.94999981      -5.94999981      -5.94999981      -5.94999981      -5.94999981      -5.94999981      -5.94999981      -5.94999981      -5.94999981      -5.94999981      -5.94999981      -5.94999981      -5.94999981      -5.94999981      -5.94999981      -5.94999981      -5.94999981      -5.94999981      -5.94999981      -5.94999981      -5.94999981      -5.94999981      -5.94999981      -5.94999981      -5.94999981      -5.94999981      -5.94999981      -5.94999981      -5.94999981      -5.94999981      -5.94999981      -5.94999981      -5.94999981      -5.94999981      -5.94999981      -5.94999981      -5.94999981      -5.94999981      -5.94999981      -5.94999981      -5.94999981      -5.94999981      -5.94999981      -5.94999981      -5.94999981      -5.94999981      -5.94999981      -5.94999981      -5.94999981      -5.94999981      -5.94999981      -5.94999981      -5.94999981      -5.94999981      -5.94999981      -5.94999981      -5.94999981      -5.94999981      -5.94999981      -5.94999981      -5.94999981      -5.94999981      -5.94999981      -5.94999981      -5.94999981      -5.94999981      -5.94999981      -5.94999981      -5.94999981      -5.94999981      -5.93999958      -5.93999958      -5.93999958      -5.93999958      -5.93999958      -5.93999958      -5.93999958      -5.93999958      -5.93999958      -5.93999958      -5.93999958      -5.94999981      -5.94999981      -5.94999981      -5.94999981      -5.94999981      -5.94999981      -5.94999981      -5.94999981      -5.94999981      -5.94999981      -5.94999981      -5.94999981      -5.94999981      -5.94999981      -5.94999981      -5.94999981      -5.94999981      -5.94999981      -5.94999981      -5.94999981      -5.94999981      -5.94999981      -5.94999981      -5.94999981      -5.94999981      -5.94999981      -5.94999981      -5.94999981      -5.94999981
        -5.94999981      -5.94999981      -5.94999981      -5.94999981      -5.94999981      -5.94999981      -5.94999981      -5.94999981      -5.94999981      -5.94999981      -5.94999981      -5.94999981      -5.94999981      -5.94999981      -5.94999981      -5.94999981      -5.94999981      -5.94999981      -5.93999958      -5.93999958      -5.93999958      -5.93999958      -5.93999958      -5.93999958      -5.93999958      -5.93999958      -5.93999958      -5.93999958      -5.94999981      -5.94999981      -5.94999981      -5.94999981      -5.94999981      -5.94999981      -5.94999981      -5.94999981      -5.94999981      -5.94999981      -5.94999981      -5.94999981      -5.94999981      -5.94999981      -5.94999981      -5.94999981      -5.94999981      -5.94999981      -5.94999981      -5.94999981      -5.94999981      -5.94999981      -5.94999981      -5.94999981      -5.94999981      -5.94999981      -5.94999981      -5.94999981      -5.94999981      -5.94999981      -5.94999981      -5.94999981      -5.94999981      -5.94999981      -5.94999981      -5.94999981      -5.94999981      -5.94999981      -5.94999981      -5.94999981      -5.94999981      -5.94999981      -5.94999981      -5.94999981      -5.94999981      -5.94999981      -5.94999981      -5.94999981      -5.94999981      -5.94999981      -5.94999981      -5.94999981      -5.94999981      -5.94999981      -5.94999981      -5.94999981      -5.94999981      -5.94999981      -5.94999981      -5.94999981      -5.94999981      -5.94999981      -5.94999981      -5.94999981      -5.94999981      -5.94999981      -5.94999981      -5.94999981      -5.94999981      -5.94999981      -5.94999981      -5.94999981      -5.93999958      -5.93999958      -5.93999958      -5.93999958      -5.93999958      -5.93999958      -5.93999958      -5.93999958      -5.93999958      -5.93999958      -5.93999958      -5.94999981      -5.94999981      -5.94999981      -5.94999981      -5.94999981      -5.94999981      -5.94999981      -5.94999981      -5.94999981      -5.94999981      -5.94999981      -5.94999981      -5.94999981      -5.94999981      -5.94999981      -5.94999981      -5.94999981      -5.94999981      -5.94999981      -5.94999981      -5.94999981      -5.94999981      -5.94999981      -5.94999981      -5.94999981      -5.94999981      -5.94999981      -5.94999981      -5.94999981
        -5.93999958      -5.94999981      -5.94999981      -5.94999981      -5.94999981      -5.94999981      -5.94999981      -5.94999981      -5.94999981      -5.94999981      -5.94999981      -5.94999981      -5.94999981      -5.94999981      -5.94999981      -5.94999981      -5.94999981      -5.93999958      -5.93999958      -5.93999958      -5.93999958      -5.93999958      -5.93999958      -5.93999958      -5.93999958      -5.93999958      -5.93999958      -5.93999958      -5.93999958      -5.94999981      -5.94999981      -5.94999981      -5.94999981      -5.94999981      -5.94999981      -5.94999981      -5.94999981      -5.94999981      -5.94999981      -5.94999981      -5.94999981      -5.94999981      -5.94999981      -5.94999981      -5.94999981      -5.94999981      -5.94999981      -5.94999981      -5.94999981      -5.94999981      -5.94999981      -5.94999981      -5.94999981      -5.94999981      -5.94999981      -5.94999981      -5.94999981      -5.94999981      -5.94999981      -5.94999981      -5.94999981      -5.94999981      -5.94999981      -5.94999981      -5.94999981      -5.94999981      -5.94999981      -5.94999981      -5.94999981      -5.94999981      -5.94999981      -5.94999981      -5.94999981      -5.94999981      -5.94999981      -5.94999981      -5.94999981      -5.94999981      -5.94999981      -5.94999981      -5.94999981      -5.94999981      -5.94999981      -5.94999981      -5.94999981      -5.94999981      -5.94999981      -5.94999981      -5.94999981      -5.94999981      -5.94999981      -5.94999981      -5.94999981      -5.94999981      -5.94999981      -5.94999981      -5.94999981      -5.94999981      -5.94999981      -5.94999981      -5.93999958      -5.93999958      -5.93999958      -5.93999958      -5.93999958      -5.93999958      -5.93999958      -5.93999958      -5.93999958      -5.93999958      -5.93999958      -5.93999958      -5.94999981      -5.94999981      -5.94999981      -5.94999981      -5.94999981      -5.94999981      -5.94999981      -5.94999981      -5.94999981      -5.94999981      -5.94999981      -5.94999981      -5.94999981      -5.94999981      -5.94999981      -5.94999981      -5.94999981      -5.94999981      -5.94999981      -5.94999981      -5.94999981      -5.94999981      -5.94999981      -5.94999981      -5.94999981      -5.94999981      -5.94999981      -5.94999981
        -5.93999958      -5.93999958      -5.93999958      -5.93999958      -5.93999958      -5.94999981      -5.94999981      -5.94999981      -5.94999981      -5.94999981      -5.94999981      -5.94999981      -5.94999981      -5.94999981      -5.94999981      -5.94999981      -5.93999958      -5.93999958      -5.93999958      -5.93999958      -5.93999958      -5.93999958      -5.93999958      -5.93999958      -5.93999958      -5.93999958      -5.93999958      -5.93999958      -5.93999958      -5.93999958      -5.94999981      -5.94999981      -5.94999981      -5.94999981      -5.94999981      -5.94999981      -5.94999981      -5.94999981      -5.94999981      -5.94999981      -5.94999981      -5.94999981      -5.94999981      -5.94999981      -5.94999981      -5.94999981      -5.94999981      -5.94999981      -5.94999981      -5.94999981      -5.94999981      -5.94999981      -5.94999981      -5.94999981      -5.94999981      -5.94999981      -5.94999981      -5.94999981      -5.94999981      -5.94999981      -5.94999981      -5.94999981      -5.94999981      -5.94999981      -5.94999981      -5.94999981      -5.94999981      -5.94999981      -5.94999981      -5.94999981      -5.94999981      -5.94999981      -5.94999981      -5.94999981      -5.94999981      -5.94999981      -5.94999981      -5.94999981      -5.94999981      -5.94999981      -5.94999981      -5.94999981      -5.94999981      -5.94999981      -5.94999981      -5.94999981      -5.94999981      -5.94999981      -5.94999981      -5.94999981      -5.94999981      -5.94999981      -5.94999981      -5.94999981      -5.94999981      -5.94999981      -5.94999981      -5.94999981      -5.94999981      -5.94999981      -5.93999958      -5.93999958      -5.93999958      -5.93999958      -5.93999958      -5.93999958      -5.93999958      -5.93999958      -5.93999958      -5.93999958      -5.93999958      -5.93999958      -5.93999958      -5.94999981      -5.94999981      -5.94999981      -5.94999981      -5.94999981      -5.94999981      -5.94999981      -5.94999981      -5.94999981      -5.94999981      -5.94999981      -5.94999981      -5.94999981      -5.94999981      -5.94999981      -5.94999981      -5.94999981      -5.94999981      -5.94999981      -5.94999981      -5.94999981      -5.94999981      -5.94999981      -5.94999981      -5.94999981      -5.94999981      -5.94999981