# File generated by Flopy version 3.9.2 on 02/18/2025 at 10:11:04.
BEGIN options
END options

BEGIN packagedata
  GWFHEAD  FILEIN  test_hds_bkwd
  GWFBUDGET  FILEIN  test_cbc_bkwd
END packagedata

