# File generated by Flopy version 3.9.1 on 02/28/2025 at 08:02:52.
BEGIN options
END options

BEGIN packages
  DIS6  test_prt.dis  dis
  MIP6  test_prt.mip  mip
  PRP6  test_prt.prp  prp
  OC6  test_prt.oc  oc
  FMI6  test_prt.fmi  fmi
END packages

