# File generated by Flopy version 3.9.5 on 11/11/2025 at 11:57:47.
BEGIN options
END options

BEGIN packages
  MIP6  test_prt.mip  mip
  DIS6  test_prt.dis  dis
  PRP6  test_prt.prp  prp
  OC6  test_prt.oc  oc
  FMI6  test_prt.fmi  fmi
END packages

