# File generated by Flopy version 3.9.5 on 11/11/2025 at 11:57:47.
BEGIN options
  EXIT_SOLVE_TOLERANCE  1.00000000E-05
  EXTEND_TRACKING
  DRAPE
END options

BEGIN dimensions
  NRELEASEPTS  2
END dimensions

BEGIN packagedata
  1  3 4 114     170.70000000      99.75000000      -7.00000000
  2  4 4 114     170.70000000      99.75000000      -9.00000000
END packagedata

BEGIN period  1
  FIRST
END period  1

