# File generated by Flopy version 3.9.3 on 10/06/2025 at 13:42:29.
BEGIN options
END options

BEGIN packages
  MIP6  test_prt.mip  mip
  DIS6  test_prt.dis  dis
  PRP6  test_prt.prp  prp
  OC6  test_prt.oc  oc
  FMI6  test_prt.fmi  fmi
END packages

