# File generated by Flopy version 3.9.3 on 07/23/2025 at 15:50:53.
BEGIN options
END options

BEGIN griddata
  porosity
    INTERNAL  FACTOR  1.0
         0.10665921       0.08091311       0.09464831       0.15146519       0.21988178       0.23532067       0.18679830       0.16092662       0.28367950       0.27756957       0.30875312       0.29313390       0.21952393       0.12348666       0.14348030       0.20241118       0.21985494       0.19520899       0.21133109       0.17959818
         0.17448640       0.17538653       0.25699572       0.30265364       0.23201386       0.14117593       0.11670764       0.15646974       0.18928619       0.26380783       0.21840576       0.21496129       0.21146427       0.25273574       0.26282073       0.24064008       0.19457544       0.10592423       0.10311801       0.17725169
         0.14256134       0.19383360       0.24171535       0.17987902       0.16246788       0.15162818       0.28644377       0.26816442       0.22984125       0.18919690       0.11358667       0.19509731       0.14540680       0.19405178       0.22784224       0.14731083       0.16342226       0.17452276       0.20954759       0.20378801
         0.18932617       0.13250545       0.13262336       0.17002248       0.11954909       0.20634545       0.18468899       0.11322952       0.15578037       0.19809095       0.29626565       0.22234785       0.15049013       0.10881465       0.12786292       0.27092773       0.16569979       0.16543124       0.18042542       0.20560246
         0.17903697       0.12301358       0.14259125       0.18947085       0.15226508       0.17043783       0.13779312       0.16418596       0.16077387       0.21617825       0.19444608       0.15550378       0.19233468       0.14845210       0.25378097       0.20133016       0.07739008       0.05704037       0.11834771       0.22107419
         0.20074385       0.21153269       0.31603966       0.23004445       0.18587514       0.12967328       0.17716438       0.23114997       0.18598099       0.17087838       0.15694527       0.13310589       0.18312729       0.19876857       0.21709805       0.16414382       0.15062260       0.19029885       0.25291694       0.17008019
         0.08958850       0.10482679       0.14532986       0.19669106       0.17906085       0.20714067       0.22283617       0.14043453       0.17038123       0.20568429       0.19954017       0.19078131       0.20141837       0.16954971       0.12986523       0.03345085       0.10632324       0.19560585       0.20540129       0.17450065
         0.16262169       0.19953598       0.24704660       0.17892674       0.16263182       0.15562436       0.15505489       0.13259328       0.21467067       0.21836914       0.16106466       0.16992789       0.20194246       0.16350055       0.14143591       0.17635985       0.21330799       0.18872009       0.19905539       0.08068568
         0.11359319       0.22310239       0.21966421       0.13931634       0.12519715       0.17551474       0.12080763       0.14827133       0.20688411       0.12616051       0.11128194       0.16281436       0.30446052       0.24534422       0.16169898       0.21183504       0.18516892       0.18463549       0.17951428       0.22035314
         0.15040139       0.09870512       0.18122824       0.12152519       0.11041869       0.14054810       0.14146005       0.16319778       0.19674510       0.24012791       0.21927001       0.19483466       0.18751194       0.16618455       0.26528196       0.25105448       0.10821193       0.11120764       0.17740655       0.13200993
         0.11127639       0.22162686       0.16156688       0.11009120       0.20014308       0.33240286       0.25708624       0.14537083       0.18308266       0.17306528       0.15565904       0.15827667       0.18720022       0.21614512       0.16890722       0.17887742       0.24821279       0.27033319       0.20943956       0.23586852
         0.10023146       0.14272403       0.20164913       0.08064767       0.18260320       0.24105359       0.21052375       0.24884704       0.21933665       0.17074609       0.15008659       0.18950055       0.16654464       0.21483468       0.20324728       0.20623568       0.18780936       0.18541275       0.17162226       0.17533872
         0.17194735       0.16400224       0.19341574       0.17847270       0.19462637       0.19142023       0.17761995       0.17226242       0.16062492       0.14687548       0.14528062       0.13393868       0.14080048       0.09049697       0.20058312       0.19912342       0.13868782       0.15592690       0.06790580       0.07156590
         0.14602526       0.17761582       0.10214701       0.14695118       0.24268435       0.27462866       0.22284179       0.23762136       0.19972207       0.22716988       0.25065921       0.27200364       0.22734716       0.24378890       0.23380785       0.19128054       0.25525908       0.24460903       0.24001730       0.24925396
         0.21671494       0.20257080       0.22470610       0.20498107       0.17402676       0.17848694       0.18799418       0.17749342       0.19255713       0.18190479       0.18324118       0.19412629       0.17579243       0.18193041       0.19587730       0.17041816       0.19656220       0.19044801       0.18491625       0.18350682
         0.17019909       0.16207966       0.16749748       0.16009570       0.18056889       0.18969097       0.17976638       0.20488788       0.18190670       0.20600862       0.19749366       0.23493454       0.23674765       0.14789179       0.14232408       0.16724593       0.18442003       0.19851233       0.16735851       0.17093055
         0.18338390       0.26540672       0.36717388       0.29515741       0.15712835       0.13515791       0.09346608       0.10441451       0.10444011       0.10166446       0.15965428       0.20939782       0.14102962       0.22929663       0.15802407       0.11286624       0.08007298       0.10044927       0.07581444       0.20635754
         0.12614377       0.03769822       0.03408336       0.08765479       0.08683242       0.07057795       0.11771643       0.07363983       0.08172690       0.15788408       0.10709490       0.15608752       0.20893476       0.13604912       0.16291714       0.23016429       0.22385141       0.21919043       0.22256464       0.15399010
         0.20398438       0.17329713       0.20862743       0.21073164       0.23098375       0.21037706       0.22079764       0.22891323       0.24398049       0.23949074       0.23712913       0.22685906       0.21606771       0.22768523       0.22367068       0.24927872       0.23894132       0.23973309       0.23800367       0.23135020
         0.22445285       0.22873395       0.21505759       0.20096974       0.18868431       0.20991080       0.19125840       0.17480166       0.17232355       0.17207286       0.16591278       0.21695343       0.19593361       0.21449496       0.20467760       0.17347516       0.16534091       0.17669794       0.16489622       0.16699529
         0.16648202       0.15775577       0.15266545       0.15557897       0.15322354       0.15257767       0.14447181       0.15679093       0.15051121       0.16146315       0.15405229       0.15520259       0.14624790       0.15129731       0.14492075       0.16684224       0.19022786       0.15449811       0.17426399       0.18129704
         0.12944827       0.13360509       0.17576292       0.19860279       0.18040701       0.17265968       0.17144221       0.21635626       0.28179582       0.11673853       0.21894816       0.19388264       0.24898419       0.34358700       0.34810756       0.21884612       0.14153487       0.12735412       0.22165844       0.25716675
         0.21613230       0.19800962       0.21360139       0.23083323       0.20464345       0.22951925       0.21065718       0.21291415       0.21407731       0.20940952       0.20586791       0.21025165       0.20611256       0.18731565       0.17341515       0.19216431       0.18177602       0.21161630       0.19800109       0.17051179
         0.15434246       0.17118294       0.15125273       0.12528177       0.12872530       0.09728865       0.08652167       0.16420447       0.10158897       0.08937868       0.10314391       0.05549948       0.05867021       0.14047393       0.21373004       0.20280472       0.24029051       0.17539457       0.16258702       0.22975473
         0.11046432       0.24795614       0.23382068       0.23625283       0.26196858       0.36074711       0.29847204       0.18428783       0.19032878       0.15717630       0.16402487       0.18255016       0.20684928       0.23845570       0.22322766       0.16896722       0.11271228       0.14056894       0.22672332       0.20343448
         0.21977202       0.14799191       0.07003861       0.12175851       0.08888384       0.17652226       0.26614941       0.24941963       0.20373447       0.34678520       0.36769083       0.25427010       0.17444912       0.14716069       0.12864199       0.15628917       0.25093704       0.28878873       0.26766519       0.25516628
         0.14400389       0.13039115       0.21754464       0.18030756       0.15849069       0.16524621       0.09821493       0.11732783       0.12962955       0.12632543       0.19196731       0.19207551       0.18818280       0.32411197       0.37957317       0.22769726       0.10859150       0.20209758       0.16929441       0.17761435
         0.24598619       0.28798703       0.31989636       0.25914961       0.13012815       0.17718179       0.30713989       0.22816056       0.21334310       0.21178780       0.12531197       0.11930387       0.16534566       0.10781753       0.15626702       0.17494390       0.17714966       0.26688948       0.30483253       0.22426300
         0.17229302       0.23973572       0.16766959       0.16838558       0.21960760       0.28592810       0.36585363       0.25119732       0.12525888       0.22283484       0.33543423       0.28417247       0.22172726       0.19483325       0.12170354       0.10350426       0.19611434       0.10988943       0.16813097       0.20184554
         0.20985865       0.24867651       0.28419421       0.20044602       0.15624576       0.17086108       0.14778223       0.19077121       0.19266432       0.28116410       0.34090711       0.20342971       0.10926833       0.18136500       0.27169684       0.28580453       0.18458211       0.11618088       0.14227534       0.10398566
         0.09613423       0.10561548       0.11559860       0.12091383       0.20439613       0.25571361       0.19775585       0.22262984       0.29208380       0.21398491       0.20434190       0.19382849       0.17882267       0.13363652       0.17023310       0.17639320       0.15907334       0.12539929       0.21460603       0.17415545
         0.16738000       0.13643517       0.25961864       0.26701254       0.17095391       0.08684319       0.06483076       0.12698061       0.22838849       0.33128132       0.20752492       0.22392001       0.23276196       0.23688272       0.22124175       0.14926115       0.20778540       0.12603916       0.16510234       0.17029936
         0.18967615       0.20548890       0.23300648       0.18038755       0.14099505       0.13419597       0.29218632       0.29041367       0.18353913       0.16598982       0.12686516       0.22553679       0.19874697       0.31310510       0.23160480       0.19321879       0.18477962       0.21704249       0.20710705       0.14373696
         0.20701760       0.14127932       0.24424878       0.20806452       0.23251523       0.22527400       0.21431148       0.13788958       0.14939189       0.16890341       0.25209575       0.22250396       0.13182262       0.23514733       0.19988982       0.27014453       0.17939330       0.22765551       0.20095978       0.21407630
         0.16141180       0.16456506       0.18078557       0.18777535       0.15722505       0.16857798       0.21001220       0.21392504       0.17878577       0.16051782       0.17602113       0.13628867       0.16427276       0.15372803       0.17924398       0.21121244       0.09387539       0.15100596       0.19736401       0.21975343
         0.21296820       0.22362740       0.28878361       0.20929370       0.19082070       0.14369132       0.13419115       0.20677512       0.18622311       0.15485927       0.18711973       0.17650812       0.17641011       0.13591432       0.14574349       0.16468077       0.14549091       0.15901168       0.13892279       0.16412749
         0.13756932       0.18610122       0.17925663       0.20798896       0.22114764       0.22170722       0.22008198       0.14059315       0.18194919       0.21152027       0.18055939       0.20514900       0.21608982       0.17906486       0.18324108       0.16545111       0.19132851       0.20287587       0.25811967       0.23843222
         0.16108442       0.15042341       0.16139998       0.13970947       0.18641017       0.20729418       0.16023144       0.13772973       0.24383033       0.23267335       0.20594827       0.20895222       0.23115145       0.29054996       0.21394541       0.18716867       0.21285178       0.20386948       0.21574237       0.23796566
         0.24000285       0.27359212       0.26970316       0.22257717       0.15909029       0.13864274       0.10339895       0.12171987       0.17823665       0.12629401       0.16936335       0.14594833       0.26006836       0.21634558       0.21677911       0.25479713       0.21623914       0.17130361       0.15882654       0.21598766
         0.26945586       0.29069392       0.26110723       0.22813093       0.23048746       0.16100346       0.19287652       0.15532760       0.17263753       0.22102272       0.22391060       0.22637673       0.24097488       0.23089872       0.21940738       0.16248160       0.10041355       0.13872014       0.12884766       0.09233793
         0.11103384       0.17929890       0.15464143       0.20507827       0.19524472       0.25437465       0.21537345       0.21251392       0.20637910       0.14030158       0.15378889       0.13737176       0.11075436       0.17529550       0.12089227       0.16326692       0.22071705       0.27718025       0.19405870       0.21537479
         0.11434987       0.12872698       0.13740433       0.07596823       0.12214259       0.29521334       0.25307886       0.25196987       0.23082623       0.21414213       0.17768787       0.19770191       0.17267950       0.18196860       0.19195272       0.16393254       0.18539052       0.17722879       0.15868609       0.16894893
         0.14163952       0.17613432       0.14641470       0.17587359       0.13104705       0.09043552       0.16209657       0.09624702       0.15116345       0.10512127       0.07984754       0.04617255       0.05455785       0.02502096       0.09227760       0.18926890       0.04783235       0.07435577       0.01778937       0.04171795
         0.08457230       0.12726212       0.07787954       0.13469335       0.26215040       0.31007106       0.21195308       0.25636183       0.19752628       0.22480229       0.29743851       0.33887437       0.24619452       0.27343751       0.24335693       0.22896653       0.29669712       0.25762041       0.27958271       0.27023546
         0.24926207       0.23877627       0.24516167       0.21668437       0.21623128       0.21257500       0.22544503       0.21717600       0.20229632       0.19608556       0.22517698       0.23399620       0.17391851       0.20343597       0.26411011       0.24898685       0.20087293       0.23064924       0.21246800       0.20702344
         0.20157571       0.16847592       0.15408728       0.14735937       0.20836823       0.17727977       0.18814996       0.15488231       0.16551857       0.17718160       0.17535449       0.19772663       0.15611828       0.13186702       0.17251149       0.13728126       0.12943627       0.20092546       0.17887293       0.17840944
         0.21422737       0.19167709       0.26482234       0.24403317       0.22272670       0.16687927       0.08482435       0.06462009       0.11034961       0.04586920       0.13952932       0.19842571       0.13128046       0.23320846       0.16515798       0.07552994       0.03569055       0.07917103       0.05273130       0.18849012
         0.13170740       0.03715018       0.02468847       0.07065443       0.05179932       0.07055950       0.11552800       0.08293227       0.13719724       0.17126160       0.12812536       0.17023400       0.22706074       0.17639099       0.22348376       0.23290460       0.23864437       0.21593060       0.19370749       0.17406491
         0.19512974       0.18835292       0.20291197       0.18010606       0.18510344       0.18004504       0.16988856       0.23332699       0.24244283       0.19246628       0.19509412       0.21917998       0.18780319       0.17048329       0.14837453       0.16971858       0.14901734       0.16111561       0.15473254       0.15656404
         0.14211163       0.13852130       0.12437805       0.17955277       0.17266484       0.15870048       0.15041450       0.15856876       0.16939657       0.14735914       0.14495324       0.14522660       0.13796016       0.13458440       0.13949405       0.15481911       0.15605221       0.14510508       0.16695728       0.21753191
         0.19209519       0.18131740       0.16767954       0.17812865       0.13847609       0.16370459       0.15339630       0.13177822       0.12365562       0.13128525       0.11854714       0.13630373       0.14761578       0.11492088       0.13767128       0.13649512       0.18584451       0.15593617       0.15225047       0.18904051
         0.13793213       0.12176912       0.19603820       0.19319062       0.20435989       0.19619691       0.14137218       0.14694633       0.24507540       0.13161448       0.17858669       0.17603457       0.21158327       0.16989362       0.25201686       0.25669025       0.27623655       0.17544668       0.23189966       0.25062720
         0.24425813       0.17827586       0.20444938       0.22485224       0.20179032       0.15046165       0.12630641       0.17401821       0.15593968       0.14442035       0.13389283       0.14081355       0.15005392       0.12530991       0.14298416       0.11586766       0.09374278       0.15597836       0.12581293       0.12502331
         0.13254246       0.08852112       0.11315092       0.10494636       0.12399942       0.07501638       0.08104355       0.05989195       0.05643303       0.10064857       0.08661081       0.05469048       0.05975779       0.13294789       0.22456465       0.21455024       0.20808240       0.18066997       0.16718614       0.18921271
         0.07181509       0.22958968       0.23592479       0.20523156       0.13819499       0.19953767       0.26764221       0.25202017       0.26147184       0.17993720       0.19961695       0.22933218       0.23304795       0.19936818       0.20494146       0.09181496       0.07445836       0.14936947       0.26225067       0.20230986
         0.19155722       0.16943289       0.11985358       0.16062466       0.04729717       0.18914574       0.24756299       0.21482096       0.13794127       0.21676251       0.26397024       0.23705083       0.21303594       0.17350415       0.20319898       0.22128028       0.25529520       0.24190406       0.22466658       0.17085496
         0.14980927       0.12113598       0.17265807       0.20897159       0.20303332       0.19975634       0.11107378       0.10744779       0.14023197       0.10366794       0.17604351       0.19646277       0.16584812       0.21412757       0.22858628       0.21455686       0.18190858       0.17193411       0.25292994       0.19284920
         0.18498107       0.24241184       0.26619602       0.25720803       0.17834124       0.17895322       0.20982792       0.21580641       0.25433449       0.22595500       0.21441590       0.16711495       0.20369891       0.22267201       0.19338737       0.20058385       0.19414894       0.23030460       0.19033482       0.15441495
         0.19152567       0.16980693       0.20893819       0.17906706       0.18398875       0.22981915       0.25542031       0.21803033       0.25711793       0.20616708       0.25308335       0.18953921       0.17898279       0.19492463       0.20893019       0.15862203       0.21108302       0.21605697       0.21648690       0.23804620
         0.23235884       0.26157288       0.21002006       0.19927051       0.21287202       0.09652186       0.15450567       0.22016444       0.20044909       0.23941394       0.23016725       0.20200609       0.25531289       0.27765613       0.22028836       0.15267417       0.13800245       0.10432607       0.16248218       0.15505337
         0.14630633       0.12719112       0.14554691       0.09513067       0.14772027       0.17073136       0.10366569       0.17362901       0.20093247       0.16780437       0.18057198       0.20906892       0.21574098       0.24552622       0.16521518       0.08870521       0.08298087       0.16935390       0.18066544       0.11589973
         0.07702692       0.05048653       0.06131169       0.08737923       0.18953306       0.12606124       0.16823061       0.12343213       0.12654850       0.15925067       0.12143747       0.21057965       0.19186263       0.18071456       0.18680695       0.18844144       0.20299225       0.24135207       0.17018963       0.10178938
         0.09802290       0.18023867       0.15255569       0.09113912       0.06065786       0.05056267       0.05050444       0.05834306       0.19791409       0.12536882       0.14577776       0.14351015       0.12865072       0.12344152       0.13324256       0.18627026       0.15393506       0.15402954       0.17477301       0.16596665
         0.19657875       0.18629529       0.13219806       0.10069800       0.11216012       0.19503449       0.20594497       0.12744257       0.09523643       0.07869799       0.07938126       0.10022959       0.13301124       0.10514246       0.11315861       0.15282202       0.14706676       0.07597420       0.08944972       0.14865884
         0.12710711       0.14855181       0.18638720       0.17412695       0.17676413       0.13584631       0.11476339       0.10554993       0.11136128       0.18101136       0.20627936       0.13395199       0.09599519       0.09109902       0.11228220       0.14917659       0.09168977       0.09376054       0.13820858       0.15823832
         0.17108895       0.07518099       0.08048480       0.10875998       0.15581647       0.18761573       0.16902987       0.15798562       0.15711968       0.09964407       0.10251237       0.11292254       0.13266613       0.18435956       0.17722426       0.11685845       0.10132395       0.07294993       0.08484332       0.13795844
         0.09103863       0.08176797       0.14311011       0.19079798       0.19666486       0.11162892       0.09126712       0.09580687       0.12631040       0.16257859       0.18900677       0.21513130       0.14982563       0.07399614       0.06553632       0.09424198       0.16628360       0.18475081       0.15313606       0.13452459
         0.11050628       0.12887772       0.12627794       0.09914458       0.11044621       0.06412781       0.13085895       0.22843265       0.21584276       0.13052989       0.10332741       0.10637364       0.14158619       0.14198315       0.18012465       0.19744857       0.15555097       0.06216743       0.05224581       0.09394139
         0.17439629       0.16958249       0.15532251       0.16043065       0.10995382       0.12519176       0.11175832       0.08865261       0.09167190       0.06562496       0.11230818       0.18609007       0.18794165       0.14086632       0.06694882       0.07062967       0.13906000       0.13819917       0.12351874       0.12210600
         0.10620113       0.11602335       0.08990332       0.10515594       0.14701657       0.14719728       0.13392433       0.15446524       0.16736956       0.16797790       0.08428020       0.05339008       0.11547587       0.16787450       0.15949829       0.12729651       0.11904897       0.12071615       0.06418331       0.04935033
         0.06684230       0.09568605       0.07201550       0.10587765       0.14112999       0.11960953       0.11730023       0.05819130       0.05000000       0.06154360       0.05000000       0.05824395       0.09758412       0.10613637       0.08910729       0.09970165       0.10779448       0.10839121       0.10243112       0.09807409
         0.08626488       0.09337537       0.08124782       0.08171238       0.08205456       0.08736648       0.08758747       0.09336201       0.08183581       0.09907039       0.11071748       0.10428640       0.11540633       0.09111085       0.09538371       0.09461924       0.10710705       0.11392206       0.11525007       0.11831673
         0.12326700       0.12738906       0.13304697       0.12907172       0.14049013       0.15559990       0.12797755       0.15273693       0.13598628       0.15422774       0.16408863       0.15770984       0.16990592       0.16144677       0.15992026       0.19316884       0.15036787       0.15926476       0.13665969       0.13258830
         0.17485007       0.20352788       0.16756871       0.21184879       0.20787959       0.19596002       0.21764188       0.21926904       0.22363876       0.21525312       0.21702790       0.20448340       0.20504112       0.20155814       0.14392486       0.09739000       0.18270980       0.14254801       0.18615226       0.15598702
         0.12240855       0.10451450       0.13463850       0.12218184       0.07430352       0.07883026       0.10163715       0.10116496       0.12232747       0.11040782       0.10039908       0.10054821       0.10735957       0.11103209       0.09691864       0.11432245       0.10209245       0.11153972       0.11039234       0.12041215
         0.12143341       0.11235948       0.12771384       0.11584716       0.11895998       0.11868707       0.09762521       0.08814438       0.10074102       0.08448486       0.08580584       0.12639451       0.11307913       0.10190368       0.14126148       0.07044452       0.02808699       0.05269424       0.12291882       0.07212011
         0.09733123       0.14470734       0.15419959       0.13211248       0.07790738       0.06074596       0.06991462       0.07656929       0.07138639       0.08333110       0.09887227       0.12838840       0.10929168       0.14022542       0.14692729       0.16596592       0.15630653       0.16804895       0.15327636       0.16132002
         0.15744134       0.12759800       0.12219377       0.13610913       0.13200004       0.14890530       0.20008596       0.14343587       0.17633558       0.13739768       0.14457826       0.21670088       0.20479385       0.19407859       0.19366738       0.19143463       0.18889479       0.18611882       0.17804847       0.18248101
         0.18395968       0.16500877       0.17393375       0.18192676       0.18713626       0.19436386       0.21500450       0.17763487       0.15066054       0.17588028       0.15382587       0.13860742       0.13037002       0.14564737       0.14206836       0.17969507       0.16562726       0.19445433       0.18052115       0.15884269
         0.14321920       0.17531143       0.15574314       0.13600215       0.13316791       0.15477460       0.16449000       0.13315304       0.14681615       0.17678195       0.19125604       0.15360570       0.16845685       0.14792972       0.18210408       0.16976894       0.19470328       0.19278248       0.22398020       0.13560338
         0.14227362       0.17761511       0.17580934       0.15630796       0.13502817       0.19313087       0.16896045       0.20913242       0.19999864       0.24291727       0.22413313       0.19842026       0.17577226       0.20711071       0.17844870       0.10320427       0.09505110       0.12606863       0.09862938       0.07601359
         0.12729905       0.08169422       0.10254205       0.14309667       0.13830793       0.18354499       0.12521467       0.07498364       0.06998087       0.11459676       0.07766855       0.06923935       0.08866423       0.11657361       0.12618572       0.14339971       0.15884741       0.13622663       0.15564657       0.17544455
         0.13630435       0.16668353       0.22714676       0.16920005       0.22251712       0.21228168       0.17287650       0.24456797       0.19356836       0.15273864       0.17476704       0.16601044       0.17866614       0.19155085       0.23116883       0.18924527       0.23024172       0.17410706       0.18955114       0.22639238
         0.21902811       0.23628462       0.22212794       0.20743225       0.19312221       0.19488381       0.16846612       0.20488921       0.17577896       0.13122299       0.08446726       0.11361739       0.08176568       0.09926979       0.15545341       0.17568446       0.16479062       0.14506722       0.11207944       0.07680282
         0.12144709       0.11116021       0.05373153       0.07654138       0.08746340       0.08026851       0.19066247       0.21884672       0.23292918       0.18934742       0.13162281       0.12047797       0.19893912       0.25407337       0.17584565       0.19313511       0.10541839       0.12455397       0.15989479       0.15906321
         0.12886354       0.14582486       0.09602807       0.07952723       0.12228424       0.12022319       0.07639414       0.09576346       0.11200007       0.12187832       0.17124829       0.20243876       0.20193619       0.17673372       0.12492384       0.13905105       0.22910067       0.24371043       0.17783747       0.17632237
         0.13988109       0.15343852       0.12415726       0.10969558       0.08512199       0.11034717       0.08081368       0.06489492       0.12027599       0.09887064       0.10639845       0.13845483       0.14922140       0.15477469       0.10195713       0.14667340       0.14899849       0.18275864       0.19562088       0.19168920