# File generated by Flopy version 3.8.2 on 01/22/2025 at 12:03:47.
BEGIN options
END options

BEGIN griddata
  strt
    CONSTANT       1.00000000
END griddata

