# File generated by Flopy version 3.8.2 on 01/22/2025 at 12:03:47.
BEGIN options
  BUDGET  FILEOUT  model_archpy.cbc
  HEAD  FILEOUT  model_archpy.hds
END options

BEGIN period  1
  SAVE  HEAD  LAST
  SAVE  BUDGET  LAST
  PRINT  BUDGET  ALL
END period  1

