# File generated by Flopy version 3.8.2 on 01/22/2025 at 12:03:40.
BEGIN options
END options

BEGIN packages
  OC6  model_archpy.oc  oc
  IC6  model_archpy.ic  ic
  DIS6  model_archpy.dis  dis
  NPF6  model_archpy.npf  npf
  CHD6  model_archpy.chd  chd_0
END packages

