# File generated by Flopy version 3.8.2 on 01/22/2025 at 12:06:36.
BEGIN options
END options

BEGIN packages
  OC6  model.oc  oc
  IC6  model.ic  ic
  DIS6  model.dis  dis
  NPF6  model.npf  npf
  CHD6  model.chd  chd_0
END packages

