# File generated by Flopy version 3.8.2 on 01/24/2025 at 09:11:46.
BEGIN options
  COMPLEXITY  complex
END options

