# File generated by Flopy version 3.8.2 on 01/22/2025 at 12:06:47.
BEGIN options
  COMPLEXITY  complex
END options

