# File generated by Flopy version 3.8.2 on 01/22/2025 at 12:08:45.
BEGIN options
END options

BEGIN timing
  TDIS6  sim_test.tdis
END timing

BEGIN models
  gwf6  model.nam  model
END models

BEGIN exchanges
END exchanges

BEGIN solutiongroup  1
  ims6  sim_test.ims  model
END solutiongroup  1

