# File generated by Flopy version 3.8.2 on 01/24/2025 at 09:13:58.
BEGIN options
  SAVE_FLOWS
END options

BEGIN dimensions
  MAXBOUND  3192
END dimensions

BEGIN period  1
  5 1 1 100
  5 2 1 100
  5 3 1 100
  5 4 1 100
  5 5 1 100
  5 6 1 100
  5 7 1 100
  5 8 1 100
  5 9 1 100
  5 10 1 100
  5 11 1 100
  5 12 1 100
  5 13 1 100
  5 14 1 100
  5 15 1 100
  5 16 1 100
  5 17 1 100
  5 18 1 100
  5 19 1 100
  5 20 1 100
  5 21 1 100
  5 22 1 100
  5 23 1 100
  5 24 1 100
  5 25 1 100
  5 26 1 100
  5 27 1 100
  5 28 1 100
  5 29 1 100
  5 30 1 100
  5 31 1 100
  5 32 1 100
  5 33 1 100
  5 34 1 100
  5 35 1 100
  5 36 1 100
  5 37 1 100
  5 38 1 100
  5 39 1 100
  5 40 1 100
  5 41 1 100
  5 42 1 100
  6 1 1 100
  6 2 1 100
  6 3 1 100
  6 4 1 100
  6 5 1 100
  6 6 1 100
  6 7 1 100
  6 8 1 100
  6 9 1 100
  6 10 1 100
  6 11 1 100
  6 12 1 100
  6 13 1 100
  6 14 1 100
  6 15 1 100
  6 16 1 100
  6 17 1 100
  6 18 1 100
  6 19 1 100
  6 20 1 100
  6 21 1 100
  6 22 1 100
  6 23 1 100
  6 24 1 100
  6 25 1 100
  6 26 1 100
  6 27 1 100
  6 28 1 100
  6 29 1 100
  6 30 1 100
  6 31 1 100
  6 32 1 100
  6 33 1 100
  6 34 1 100
  6 35 1 100
  6 36 1 100
  6 37 1 100
  6 38 1 100
  6 39 1 100
  6 40 1 100
  6 41 1 100
  6 42 1 100
  7 1 1 100
  7 2 1 100
  7 3 1 100
  7 4 1 100
  7 5 1 100
  7 6 1 100
  7 7 1 100
  7 8 1 100
  7 9 1 100
  7 10 1 100
  7 11 1 100
  7 12 1 100
  7 13 1 100
  7 14 1 100
  7 15 1 100
  7 16 1 100
  7 17 1 100
  7 18 1 100
  7 19 1 100
  7 20 1 100
  7 21 1 100
  7 22 1 100
  7 23 1 100
  7 24 1 100
  7 25 1 100
  7 26 1 100
  7 27 1 100
  7 28 1 100
  7 29 1 100
  7 30 1 100
  7 31 1 100
  7 32 1 100
  7 33 1 100
  7 34 1 100
  7 35 1 100
  7 36 1 100
  7 37 1 100
  7 38 1 100
  7 39 1 100
  7 40 1 100
  7 41 1 100
  7 42 1 100
  8 1 1 100
  8 2 1 100
  8 3 1 100
  8 4 1 100
  8 5 1 100
  8 6 1 100
  8 7 1 100
  8 8 1 100
  8 9 1 100
  8 10 1 100
  8 11 1 100
  8 12 1 100
  8 13 1 100
  8 14 1 100
  8 15 1 100
  8 16 1 100
  8 17 1 100
  8 18 1 100
  8 19 1 100
  8 20 1 100
  8 21 1 100
  8 22 1 100
  8 23 1 100
  8 24 1 100
  8 25 1 100
  8 26 1 100
  8 27 1 100
  8 28 1 100
  8 29 1 100
  8 30 1 100
  8 31 1 100
  8 32 1 100
  8 33 1 100
  8 34 1 100
  8 35 1 100
  8 36 1 100
  8 37 1 100
  8 38 1 100
  8 39 1 100
  8 40 1 100
  8 41 1 100
  8 42 1 100
  9 1 1 100
  9 2 1 100
  9 3 1 100
  9 4 1 100
  9 5 1 100
  9 6 1 100
  9 7 1 100
  9 8 1 100
  9 9 1 100
  9 10 1 100
  9 11 1 100
  9 12 1 100
  9 13 1 100
  9 14 1 100
  9 15 1 100
  9 16 1 100
  9 17 1 100
  9 18 1 100
  9 19 1 100
  9 20 1 100
  9 21 1 100
  9 22 1 100
  9 23 1 100
  9 24 1 100
  9 25 1 100
  9 26 1 100
  9 27 1 100
  9 28 1 100
  9 29 1 100
  9 30 1 100
  9 31 1 100
  9 32 1 100
  9 33 1 100
  9 34 1 100
  9 35 1 100
  9 36 1 100
  9 37 1 100
  9 38 1 100
  9 39 1 100
  9 40 1 100
  9 41 1 100
  9 42 1 100
  10 1 1 100
  10 2 1 100
  10 3 1 100
  10 4 1 100
  10 5 1 100
  10 6 1 100
  10 7 1 100
  10 8 1 100
  10 9 1 100
  10 10 1 100
  10 11 1 100
  10 12 1 100
  10 13 1 100
  10 14 1 100
  10 15 1 100
  10 16 1 100
  10 17 1 100
  10 18 1 100
  10 19 1 100
  10 20 1 100
  10 21 1 100
  10 22 1 100
  10 23 1 100
  10 24 1 100
  10 25 1 100
  10 26 1 100
  10 27 1 100
  10 28 1 100
  10 29 1 100
  10 30 1 100
  10 31 1 100
  10 32 1 100
  10 33 1 100
  10 34 1 100
  10 35 1 100
  10 36 1 100
  10 37 1 100
  10 38 1 100
  10 39 1 100
  10 40 1 100
  10 41 1 100
  10 42 1 100
  11 1 1 100
  11 2 1 100
  11 3 1 100
  11 4 1 100
  11 5 1 100
  11 6 1 100
  11 7 1 100
  11 8 1 100
  11 9 1 100
  11 10 1 100
  11 11 1 100
  11 12 1 100
  11 13 1 100
  11 14 1 100
  11 15 1 100
  11 16 1 100
  11 17 1 100
  11 18 1 100
  11 19 1 100
  11 20 1 100
  11 21 1 100
  11 22 1 100
  11 23 1 100
  11 24 1 100
  11 25 1 100
  11 26 1 100
  11 27 1 100
  11 28 1 100
  11 29 1 100
  11 30 1 100
  11 31 1 100
  11 32 1 100
  11 33 1 100
  11 34 1 100
  11 35 1 100
  11 36 1 100
  11 37 1 100
  11 38 1 100
  11 39 1 100
  11 40 1 100
  11 41 1 100
  11 42 1 100
  12 1 1 100
  12 2 1 100
  12 3 1 100
  12 4 1 100
  12 5 1 100
  12 6 1 100
  12 7 1 100
  12 8 1 100
  12 9 1 100
  12 10 1 100
  12 11 1 100
  12 12 1 100
  12 13 1 100
  12 14 1 100
  12 15 1 100
  12 16 1 100
  12 17 1 100
  12 18 1 100
  12 19 1 100
  12 20 1 100
  12 21 1 100
  12 22 1 100
  12 23 1 100
  12 24 1 100
  12 25 1 100
  12 26 1 100
  12 27 1 100
  12 28 1 100
  12 29 1 100
  12 30 1 100
  12 31 1 100
  12 32 1 100
  12 33 1 100
  12 34 1 100
  12 35 1 100
  12 36 1 100
  12 37 1 100
  12 38 1 100
  12 39 1 100
  12 40 1 100
  12 41 1 100
  12 42 1 100
  13 1 1 100
  13 2 1 100
  13 3 1 100
  13 4 1 100
  13 5 1 100
  13 6 1 100
  13 7 1 100
  13 8 1 100
  13 9 1 100
  13 10 1 100
  13 11 1 100
  13 12 1 100
  13 13 1 100
  13 14 1 100
  13 15 1 100
  13 16 1 100
  13 17 1 100
  13 18 1 100
  13 19 1 100
  13 20 1 100
  13 21 1 100
  13 22 1 100
  13 23 1 100
  13 24 1 100
  13 25 1 100
  13 26 1 100
  13 27 1 100
  13 28 1 100
  13 29 1 100
  13 30 1 100
  13 31 1 100
  13 32 1 100
  13 33 1 100
  13 34 1 100
  13 35 1 100
  13 36 1 100
  13 37 1 100
  13 38 1 100
  13 39 1 100
  13 40 1 100
  13 41 1 100
  13 42 1 100
  14 1 1 100
  14 2 1 100
  14 3 1 100
  14 4 1 100
  14 5 1 100
  14 6 1 100
  14 7 1 100
  14 8 1 100
  14 9 1 100
  14 10 1 100
  14 11 1 100
  14 12 1 100
  14 13 1 100
  14 14 1 100
  14 15 1 100
  14 16 1 100
  14 17 1 100
  14 18 1 100
  14 19 1 100
  14 20 1 100
  14 21 1 100
  14 22 1 100
  14 23 1 100
  14 24 1 100
  14 25 1 100
  14 26 1 100
  14 27 1 100
  14 28 1 100
  14 29 1 100
  14 30 1 100
  14 31 1 100
  14 32 1 100
  14 33 1 100
  14 34 1 100
  14 35 1 100
  14 36 1 100
  14 37 1 100
  14 38 1 100
  14 39 1 100
  14 40 1 100
  14 41 1 100
  14 42 1 100
  15 1 1 100
  15 2 1 100
  15 3 1 100
  15 4 1 100
  15 5 1 100
  15 6 1 100
  15 7 1 100
  15 8 1 100
  15 9 1 100
  15 10 1 100
  15 11 1 100
  15 12 1 100
  15 13 1 100
  15 14 1 100
  15 15 1 100
  15 16 1 100
  15 17 1 100
  15 18 1 100
  15 19 1 100
  15 20 1 100
  15 21 1 100
  15 22 1 100
  15 23 1 100
  15 24 1 100
  15 25 1 100
  15 26 1 100
  15 27 1 100
  15 28 1 100
  15 29 1 100
  15 30 1 100
  15 31 1 100
  15 32 1 100
  15 33 1 100
  15 34 1 100
  15 35 1 100
  15 36 1 100
  15 37 1 100
  15 38 1 100
  15 39 1 100
  15 40 1 100
  15 41 1 100
  15 42 1 100
  16 1 1 100
  16 2 1 100
  16 3 1 100
  16 4 1 100
  16 5 1 100
  16 6 1 100
  16 7 1 100
  16 8 1 100
  16 9 1 100
  16 10 1 100
  16 11 1 100
  16 12 1 100
  16 13 1 100
  16 14 1 100
  16 15 1 100
  16 16 1 100
  16 17 1 100
  16 18 1 100
  16 19 1 100
  16 20 1 100
  16 21 1 100
  16 22 1 100
  16 23 1 100
  16 24 1 100
  16 25 1 100
  16 26 1 100
  16 27 1 100
  16 28 1 100
  16 29 1 100
  16 30 1 100
  16 31 1 100
  16 32 1 100
  16 33 1 100
  16 34 1 100
  16 35 1 100
  16 36 1 100
  16 37 1 100
  16 38 1 100
  16 39 1 100
  16 40 1 100
  16 41 1 100
  16 42 1 100
  17 1 1 100
  17 2 1 100
  17 3 1 100
  17 4 1 100
  17 5 1 100
  17 6 1 100
  17 7 1 100
  17 8 1 100
  17 9 1 100
  17 10 1 100
  17 11 1 100
  17 12 1 100
  17 13 1 100
  17 14 1 100
  17 15 1 100
  17 16 1 100
  17 17 1 100
  17 18 1 100
  17 19 1 100
  17 20 1 100
  17 21 1 100
  17 22 1 100
  17 23 1 100
  17 24 1 100
  17 25 1 100
  17 26 1 100
  17 27 1 100
  17 28 1 100
  17 29 1 100
  17 30 1 100
  17 31 1 100
  17 32 1 100
  17 33 1 100
  17 34 1 100
  17 35 1 100
  17 36 1 100
  17 37 1 100
  17 38 1 100
  17 39 1 100
  17 40 1 100
  17 41 1 100
  17 42 1 100
  18 1 1 100
  18 2 1 100
  18 3 1 100
  18 4 1 100
  18 5 1 100
  18 6 1 100
  18 7 1 100
  18 8 1 100
  18 9 1 100
  18 10 1 100
  18 11 1 100
  18 12 1 100
  18 13 1 100
  18 14 1 100
  18 15 1 100
  18 16 1 100
  18 17 1 100
  18 18 1 100
  18 19 1 100
  18 20 1 100
  18 21 1 100
  18 22 1 100
  18 23 1 100
  18 24 1 100
  18 25 1 100
  18 26 1 100
  18 27 1 100
  18 28 1 100
  18 29 1 100
  18 30 1 100
  18 31 1 100
  18 32 1 100
  18 33 1 100
  18 34 1 100
  18 35 1 100
  18 36 1 100
  18 37 1 100
  18 38 1 100
  18 39 1 100
  18 40 1 100
  18 41 1 100
  18 42 1 100
  19 1 1 100
  19 2 1 100
  19 3 1 100
  19 4 1 100
  19 5 1 100
  19 6 1 100
  19 7 1 100
  19 8 1 100
  19 9 1 100
  19 10 1 100
  19 11 1 100
  19 12 1 100
  19 13 1 100
  19 14 1 100
  19 15 1 100
  19 16 1 100
  19 17 1 100
  19 18 1 100
  19 19 1 100
  19 20 1 100
  19 21 1 100
  19 22 1 100
  19 23 1 100
  19 24 1 100
  19 25 1 100
  19 26 1 100
  19 27 1 100
  19 28 1 100
  19 29 1 100
  19 30 1 100
  19 31 1 100
  19 32 1 100
  19 33 1 100
  19 34 1 100
  19 35 1 100
  19 36 1 100
  19 37 1 100
  19 38 1 100
  19 39 1 100
  19 40 1 100
  19 41 1 100
  19 42 1 100
  20 1 1 100
  20 2 1 100
  20 3 1 100
  20 4 1 100
  20 5 1 100
  20 6 1 100
  20 7 1 100
  20 8 1 100
  20 9 1 100
  20 10 1 100
  20 11 1 100
  20 12 1 100
  20 13 1 100
  20 14 1 100
  20 15 1 100
  20 16 1 100
  20 17 1 100
  20 18 1 100
  20 19 1 100
  20 20 1 100
  20 21 1 100
  20 22 1 100
  20 23 1 100
  20 24 1 100
  20 25 1 100
  20 26 1 100
  20 27 1 100
  20 28 1 100
  20 29 1 100
  20 30 1 100
  20 31 1 100
  20 32 1 100
  20 33 1 100
  20 34 1 100
  20 35 1 100
  20 36 1 100
  20 37 1 100
  20 38 1 100
  20 39 1 100
  20 40 1 100
  20 41 1 100
  20 42 1 100
  21 1 1 100
  21 2 1 100
  21 3 1 100
  21 4 1 100
  21 5 1 100
  21 6 1 100
  21 7 1 100
  21 8 1 100
  21 9 1 100
  21 10 1 100
  21 11 1 100
  21 12 1 100
  21 13 1 100
  21 14 1 100
  21 15 1 100
  21 16 1 100
  21 17 1 100
  21 18 1 100
  21 19 1 100
  21 20 1 100
  21 21 1 100
  21 22 1 100
  21 23 1 100
  21 24 1 100
  21 25 1 100
  21 26 1 100
  21 27 1 100
  21 28 1 100
  21 29 1 100
  21 30 1 100
  21 31 1 100
  21 32 1 100
  21 33 1 100
  21 34 1 100
  21 35 1 100
  21 36 1 100
  21 37 1 100
  21 38 1 100
  21 39 1 100
  21 40 1 100
  21 41 1 100
  21 42 1 100
  22 1 1 100
  22 2 1 100
  22 3 1 100
  22 4 1 100
  22 5 1 100
  22 6 1 100
  22 7 1 100
  22 8 1 100
  22 9 1 100
  22 10 1 100
  22 11 1 100
  22 12 1 100
  22 13 1 100
  22 14 1 100
  22 15 1 100
  22 16 1 100
  22 17 1 100
  22 18 1 100
  22 19 1 100
  22 20 1 100
  22 21 1 100
  22 22 1 100
  22 23 1 100
  22 24 1 100
  22 25 1 100
  22 26 1 100
  22 27 1 100
  22 28 1 100
  22 29 1 100
  22 30 1 100
  22 31 1 100
  22 32 1 100
  22 33 1 100
  22 34 1 100
  22 35 1 100
  22 36 1 100
  22 37 1 100
  22 38 1 100
  22 39 1 100
  22 40 1 100
  22 41 1 100
  22 42 1 100
  23 1 1 100
  23 2 1 100
  23 3 1 100
  23 4 1 100
  23 5 1 100
  23 6 1 100
  23 7 1 100
  23 8 1 100
  23 9 1 100
  23 10 1 100
  23 11 1 100
  23 12 1 100
  23 13 1 100
  23 14 1 100
  23 15 1 100
  23 16 1 100
  23 17 1 100
  23 18 1 100
  23 19 1 100
  23 20 1 100
  23 21 1 100
  23 22 1 100
  23 23 1 100
  23 24 1 100
  23 25 1 100
  23 26 1 100
  23 27 1 100
  23 28 1 100
  23 29 1 100
  23 30 1 100
  23 31 1 100
  23 32 1 100
  23 33 1 100
  23 34 1 100
  23 35 1 100
  23 36 1 100
  23 37 1 100
  23 38 1 100
  23 39 1 100
  23 40 1 100
  23 41 1 100
  23 42 1 100
  24 1 1 100
  24 2 1 100
  24 3 1 100
  24 4 1 100
  24 5 1 100
  24 6 1 100
  24 7 1 100
  24 8 1 100
  24 9 1 100
  24 10 1 100
  24 11 1 100
  24 12 1 100
  24 13 1 100
  24 14 1 100
  24 15 1 100
  24 16 1 100
  24 17 1 100
  24 18 1 100
  24 19 1 100
  24 20 1 100
  24 21 1 100
  24 22 1 100
  24 23 1 100
  24 24 1 100
  24 25 1 100
  24 26 1 100
  24 27 1 100
  24 28 1 100
  24 29 1 100
  24 30 1 100
  24 31 1 100
  24 32 1 100
  24 33 1 100
  24 34 1 100
  24 35 1 100
  24 36 1 100
  24 37 1 100
  24 38 1 100
  24 39 1 100
  24 40 1 100
  24 41 1 100
  24 42 1 100
  25 1 1 100
  25 2 1 100
  25 3 1 100
  25 4 1 100
  25 5 1 100
  25 6 1 100
  25 7 1 100
  25 8 1 100
  25 9 1 100
  25 10 1 100
  25 11 1 100
  25 12 1 100
  25 13 1 100
  25 14 1 100
  25 15 1 100
  25 16 1 100
  25 17 1 100
  25 18 1 100
  25 19 1 100
  25 20 1 100
  25 21 1 100
  25 22 1 100
  25 23 1 100
  25 24 1 100
  25 25 1 100
  25 26 1 100
  25 27 1 100
  25 28 1 100
  25 29 1 100
  25 30 1 100
  25 31 1 100
  25 32 1 100
  25 33 1 100
  25 34 1 100
  25 35 1 100
  25 36 1 100
  25 37 1 100
  25 38 1 100
  25 39 1 100
  25 40 1 100
  25 41 1 100
  25 42 1 100
  26 1 1 100
  26 2 1 100
  26 3 1 100
  26 4 1 100
  26 5 1 100
  26 6 1 100
  26 7 1 100
  26 8 1 100
  26 9 1 100
  26 10 1 100
  26 11 1 100
  26 12 1 100
  26 13 1 100
  26 14 1 100
  26 15 1 100
  26 16 1 100
  26 17 1 100
  26 18 1 100
  26 19 1 100
  26 20 1 100
  26 21 1 100
  26 22 1 100
  26 23 1 100
  26 24 1 100
  26 25 1 100
  26 26 1 100
  26 27 1 100
  26 28 1 100
  26 29 1 100
  26 30 1 100
  26 31 1 100
  26 32 1 100
  26 33 1 100
  26 34 1 100
  26 35 1 100
  26 36 1 100
  26 37 1 100
  26 38 1 100
  26 39 1 100
  26 40 1 100
  26 41 1 100
  26 42 1 100
  27 1 1 100
  27 2 1 100
  27 3 1 100
  27 4 1 100
  27 5 1 100
  27 6 1 100
  27 7 1 100
  27 8 1 100
  27 9 1 100
  27 10 1 100
  27 11 1 100
  27 12 1 100
  27 13 1 100
  27 14 1 100
  27 15 1 100
  27 16 1 100
  27 17 1 100
  27 18 1 100
  27 19 1 100
  27 20 1 100
  27 21 1 100
  27 22 1 100
  27 23 1 100
  27 24 1 100
  27 25 1 100
  27 26 1 100
  27 27 1 100
  27 28 1 100
  27 29 1 100
  27 30 1 100
  27 31 1 100
  27 32 1 100
  27 33 1 100
  27 34 1 100
  27 35 1 100
  27 36 1 100
  27 37 1 100
  27 38 1 100
  27 39 1 100
  27 40 1 100
  27 41 1 100
  27 42 1 100
  28 1 1 100
  28 2 1 100
  28 3 1 100
  28 4 1 100
  28 5 1 100
  28 6 1 100
  28 7 1 100
  28 8 1 100
  28 9 1 100
  28 10 1 100
  28 11 1 100
  28 12 1 100
  28 13 1 100
  28 14 1 100
  28 15 1 100
  28 16 1 100
  28 17 1 100
  28 18 1 100
  28 19 1 100
  28 20 1 100
  28 21 1 100
  28 22 1 100
  28 23 1 100
  28 24 1 100
  28 25 1 100
  28 26 1 100
  28 27 1 100
  28 28 1 100
  28 29 1 100
  28 30 1 100
  28 31 1 100
  28 32 1 100
  28 33 1 100
  28 34 1 100
  28 35 1 100
  28 36 1 100
  28 37 1 100
  28 38 1 100
  28 39 1 100
  28 40 1 100
  28 41 1 100
  28 42 1 100
  29 1 1 100
  29 2 1 100
  29 3 1 100
  29 4 1 100
  29 5 1 100
  29 6 1 100
  29 7 1 100
  29 8 1 100
  29 9 1 100
  29 10 1 100
  29 11 1 100
  29 12 1 100
  29 13 1 100
  29 14 1 100
  29 15 1 100
  29 16 1 100
  29 17 1 100
  29 18 1 100
  29 19 1 100
  29 20 1 100
  29 21 1 100
  29 22 1 100
  29 23 1 100
  29 24 1 100
  29 25 1 100
  29 26 1 100
  29 27 1 100
  29 28 1 100
  29 29 1 100
  29 30 1 100
  29 31 1 100
  29 32 1 100
  29 33 1 100
  29 34 1 100
  29 35 1 100
  29 36 1 100
  29 37 1 100
  29 38 1 100
  29 39 1 100
  29 40 1 100
  29 41 1 100
  29 42 1 100
  30 1 1 100
  30 2 1 100
  30 3 1 100
  30 4 1 100
  30 5 1 100
  30 6 1 100
  30 7 1 100
  30 8 1 100
  30 9 1 100
  30 10 1 100
  30 11 1 100
  30 12 1 100
  30 13 1 100
  30 14 1 100
  30 15 1 100
  30 16 1 100
  30 17 1 100
  30 18 1 100
  30 19 1 100
  30 20 1 100
  30 21 1 100
  30 22 1 100
  30 23 1 100
  30 24 1 100
  30 25 1 100
  30 26 1 100
  30 27 1 100
  30 28 1 100
  30 29 1 100
  30 30 1 100
  30 31 1 100
  30 32 1 100
  30 33 1 100
  30 34 1 100
  30 35 1 100
  30 36 1 100
  30 37 1 100
  30 38 1 100
  30 39 1 100
  30 40 1 100
  30 41 1 100
  30 42 1 100
  31 1 1 100
  31 2 1 100
  31 3 1 100
  31 4 1 100
  31 5 1 100
  31 6 1 100
  31 7 1 100
  31 8 1 100
  31 9 1 100
  31 10 1 100
  31 11 1 100
  31 12 1 100
  31 13 1 100
  31 14 1 100
  31 15 1 100
  31 16 1 100
  31 17 1 100
  31 18 1 100
  31 19 1 100
  31 20 1 100
  31 21 1 100
  31 22 1 100
  31 23 1 100
  31 24 1 100
  31 25 1 100
  31 26 1 100
  31 27 1 100
  31 28 1 100
  31 29 1 100
  31 30 1 100
  31 31 1 100
  31 32 1 100
  31 33 1 100
  31 34 1 100
  31 35 1 100
  31 36 1 100
  31 37 1 100
  31 38 1 100
  31 39 1 100
  31 40 1 100
  31 41 1 100
  31 42 1 100
  32 1 1 100
  32 2 1 100
  32 3 1 100
  32 4 1 100
  32 5 1 100
  32 6 1 100
  32 7 1 100
  32 8 1 100
  32 9 1 100
  32 10 1 100
  32 11 1 100
  32 12 1 100
  32 13 1 100
  32 14 1 100
  32 15 1 100
  32 16 1 100
  32 17 1 100
  32 18 1 100
  32 19 1 100
  32 20 1 100
  32 21 1 100
  32 22 1 100
  32 23 1 100
  32 24 1 100
  32 25 1 100
  32 26 1 100
  32 27 1 100
  32 28 1 100
  32 29 1 100
  32 30 1 100
  32 31 1 100
  32 32 1 100
  32 33 1 100
  32 34 1 100
  32 35 1 100
  32 36 1 100
  32 37 1 100
  32 38 1 100
  32 39 1 100
  32 40 1 100
  32 41 1 100
  32 42 1 100
  33 1 1 100
  33 2 1 100
  33 3 1 100
  33 4 1 100
  33 5 1 100
  33 6 1 100
  33 7 1 100
  33 8 1 100
  33 9 1 100
  33 10 1 100
  33 11 1 100
  33 12 1 100
  33 13 1 100
  33 14 1 100
  33 15 1 100
  33 16 1 100
  33 17 1 100
  33 18 1 100
  33 19 1 100
  33 20 1 100
  33 21 1 100
  33 22 1 100
  33 23 1 100
  33 24 1 100
  33 25 1 100
  33 26 1 100
  33 27 1 100
  33 28 1 100
  33 29 1 100
  33 30 1 100
  33 31 1 100
  33 32 1 100
  33 33 1 100
  33 34 1 100
  33 35 1 100
  33 36 1 100
  33 37 1 100
  33 38 1 100
  33 39 1 100
  33 40 1 100
  33 41 1 100
  33 42 1 100
  34 1 1 100
  34 2 1 100
  34 3 1 100
  34 4 1 100
  34 5 1 100
  34 6 1 100
  34 7 1 100
  34 8 1 100
  34 9 1 100
  34 10 1 100
  34 11 1 100
  34 12 1 100
  34 13 1 100
  34 14 1 100
  34 15 1 100
  34 16 1 100
  34 17 1 100
  34 18 1 100
  34 19 1 100
  34 20 1 100
  34 21 1 100
  34 22 1 100
  34 23 1 100
  34 24 1 100
  34 25 1 100
  34 26 1 100
  34 27 1 100
  34 28 1 100
  34 29 1 100
  34 30 1 100
  34 31 1 100
  34 32 1 100
  34 33 1 100
  34 34 1 100
  34 35 1 100
  34 36 1 100
  34 37 1 100
  34 38 1 100
  34 39 1 100
  34 40 1 100
  34 41 1 100
  34 42 1 100
  35 1 1 100
  35 2 1 100
  35 3 1 100
  35 4 1 100
  35 5 1 100
  35 6 1 100
  35 7 1 100
  35 8 1 100
  35 9 1 100
  35 10 1 100
  35 11 1 100
  35 12 1 100
  35 13 1 100
  35 14 1 100
  35 15 1 100
  35 16 1 100
  35 17 1 100
  35 18 1 100
  35 19 1 100
  35 20 1 100
  35 21 1 100
  35 22 1 100
  35 23 1 100
  35 24 1 100
  35 25 1 100
  35 26 1 100
  35 27 1 100
  35 28 1 100
  35 29 1 100
  35 30 1 100
  35 31 1 100
  35 32 1 100
  35 33 1 100
  35 34 1 100
  35 35 1 100
  35 36 1 100
  35 37 1 100
  35 38 1 100
  35 39 1 100
  35 40 1 100
  35 41 1 100
  35 42 1 100
  36 1 1 100
  36 2 1 100
  36 3 1 100
  36 4 1 100
  36 5 1 100
  36 6 1 100
  36 7 1 100
  36 8 1 100
  36 9 1 100
  36 10 1 100
  36 11 1 100
  36 12 1 100
  36 13 1 100
  36 14 1 100
  36 15 1 100
  36 16 1 100
  36 17 1 100
  36 18 1 100
  36 19 1 100
  36 20 1 100
  36 21 1 100
  36 22 1 100
  36 23 1 100
  36 24 1 100
  36 25 1 100
  36 26 1 100
  36 27 1 100
  36 28 1 100
  36 29 1 100
  36 30 1 100
  36 31 1 100
  36 32 1 100
  36 33 1 100
  36 34 1 100
  36 35 1 100
  36 36 1 100
  36 37 1 100
  36 38 1 100
  36 39 1 100
  36 40 1 100
  36 41 1 100
  36 42 1 100
  37 1 1 100
  37 2 1 100
  37 3 1 100
  37 4 1 100
  37 5 1 100
  37 6 1 100
  37 7 1 100
  37 8 1 100
  37 9 1 100
  37 10 1 100
  37 11 1 100
  37 12 1 100
  37 13 1 100
  37 14 1 100
  37 15 1 100
  37 16 1 100
  37 17 1 100
  37 18 1 100
  37 19 1 100
  37 20 1 100
  37 21 1 100
  37 22 1 100
  37 23 1 100
  37 24 1 100
  37 25 1 100
  37 26 1 100
  37 27 1 100
  37 28 1 100
  37 29 1 100
  37 30 1 100
  37 31 1 100
  37 32 1 100
  37 33 1 100
  37 34 1 100
  37 35 1 100
  37 36 1 100
  37 37 1 100
  37 38 1 100
  37 39 1 100
  37 40 1 100
  37 41 1 100
  37 42 1 100
  38 1 1 100
  38 2 1 100
  38 3 1 100
  38 4 1 100
  38 5 1 100
  38 6 1 100
  38 7 1 100
  38 8 1 100
  38 9 1 100
  38 10 1 100
  38 11 1 100
  38 12 1 100
  38 13 1 100
  38 14 1 100
  38 15 1 100
  38 16 1 100
  38 17 1 100
  38 18 1 100
  38 19 1 100
  38 20 1 100
  38 21 1 100
  38 22 1 100
  38 23 1 100
  38 24 1 100
  38 25 1 100
  38 26 1 100
  38 27 1 100
  38 28 1 100
  38 29 1 100
  38 30 1 100
  38 31 1 100
  38 32 1 100
  38 33 1 100
  38 34 1 100
  38 35 1 100
  38 36 1 100
  38 37 1 100
  38 38 1 100
  38 39 1 100
  38 40 1 100
  38 41 1 100
  38 42 1 100
  39 1 1 100
  39 2 1 100
  39 3 1 100
  39 4 1 100
  39 5 1 100
  39 6 1 100
  39 7 1 100
  39 8 1 100
  39 9 1 100
  39 10 1 100
  39 11 1 100
  39 12 1 100
  39 13 1 100
  39 14 1 100
  39 15 1 100
  39 16 1 100
  39 17 1 100
  39 18 1 100
  39 19 1 100
  39 20 1 100
  39 21 1 100
  39 22 1 100
  39 23 1 100
  39 24 1 100
  39 25 1 100
  39 26 1 100
  39 27 1 100
  39 28 1 100
  39 29 1 100
  39 30 1 100
  39 31 1 100
  39 32 1 100
  39 33 1 100
  39 34 1 100
  39 35 1 100
  39 36 1 100
  39 37 1 100
  39 38 1 100
  39 39 1 100
  39 40 1 100
  39 41 1 100
  39 42 1 100
  40 1 1 100
  40 2 1 100
  40 3 1 100
  40 4 1 100
  40 5 1 100
  40 6 1 100
  40 7 1 100
  40 8 1 100
  40 9 1 100
  40 10 1 100
  40 11 1 100
  40 12 1 100
  40 13 1 100
  40 14 1 100
  40 15 1 100
  40 16 1 100
  40 17 1 100
  40 18 1 100
  40 19 1 100
  40 20 1 100
  40 21 1 100
  40 22 1 100
  40 23 1 100
  40 24 1 100
  40 25 1 100
  40 26 1 100
  40 27 1 100
  40 28 1 100
  40 29 1 100
  40 30 1 100
  40 31 1 100
  40 32 1 100
  40 33 1 100
  40 34 1 100
  40 35 1 100
  40 36 1 100
  40 37 1 100
  40 38 1 100
  40 39 1 100
  40 40 1 100
  40 41 1 100
  40 42 1 100
  41 1 1 100
  41 2 1 100
  41 3 1 100
  41 4 1 100
  41 5 1 100
  41 6 1 100
  41 7 1 100
  41 8 1 100
  41 9 1 100
  41 10 1 100
  41 11 1 100
  41 12 1 100
  41 13 1 100
  41 14 1 100
  41 15 1 100
  41 16 1 100
  41 17 1 100
  41 18 1 100
  41 19 1 100
  41 20 1 100
  41 21 1 100
  41 22 1 100
  41 23 1 100
  41 24 1 100
  41 25 1 100
  41 26 1 100
  41 27 1 100
  41 28 1 100
  41 29 1 100
  41 30 1 100
  41 31 1 100
  41 32 1 100
  41 33 1 100
  41 34 1 100
  41 35 1 100
  41 36 1 100
  41 37 1 100
  41 38 1 100
  41 39 1 100
  41 40 1 100
  41 41 1 100
  41 42 1 100
  42 1 1 100
  42 2 1 100
  42 3 1 100
  42 4 1 100
  42 5 1 100
  42 6 1 100
  42 7 1 100
  42 8 1 100
  42 9 1 100
  42 10 1 100
  42 11 1 100
  42 12 1 100
  42 13 1 100
  42 14 1 100
  42 15 1 100
  42 16 1 100
  42 17 1 100
  42 18 1 100
  42 19 1 100
  42 20 1 100
  42 21 1 100
  42 22 1 100
  42 23 1 100
  42 24 1 100
  42 25 1 100
  42 26 1 100
  42 27 1 100
  42 28 1 100
  42 29 1 100
  42 30 1 100
  42 31 1 100
  42 32 1 100
  42 33 1 100
  42 34 1 100
  42 35 1 100
  42 36 1 100
  42 37 1 100
  42 38 1 100
  42 39 1 100
  42 40 1 100
  42 41 1 100
  42 42 1 100
  5 1 84 0
  5 2 84 0
  5 3 84 0
  5 4 84 0
  5 5 84 0
  5 6 84 0
  5 7 84 0
  5 8 84 0
  5 9 84 0
  5 10 84 0
  5 11 84 0
  5 12 84 0
  5 13 84 0
  5 14 84 0
  5 15 84 0
  5 16 84 0
  5 17 84 0
  5 18 84 0
  5 19 84 0
  5 20 84 0
  5 21 84 0
  5 22 84 0
  5 23 84 0
  5 24 84 0
  5 25 84 0
  5 26 84 0
  5 27 84 0
  5 28 84 0
  5 29 84 0
  5 30 84 0
  5 31 84 0
  5 32 84 0
  5 33 84 0
  5 34 84 0
  5 35 84 0
  5 36 84 0
  5 37 84 0
  5 38 84 0
  5 39 84 0
  5 40 84 0
  5 41 84 0
  5 42 84 0
  6 1 84 0
  6 2 84 0
  6 3 84 0
  6 4 84 0
  6 5 84 0
  6 6 84 0
  6 7 84 0
  6 8 84 0
  6 9 84 0
  6 10 84 0
  6 11 84 0
  6 12 84 0
  6 13 84 0
  6 14 84 0
  6 15 84 0
  6 16 84 0
  6 17 84 0
  6 18 84 0
  6 19 84 0
  6 20 84 0
  6 21 84 0
  6 22 84 0
  6 23 84 0
  6 24 84 0
  6 25 84 0
  6 26 84 0
  6 27 84 0
  6 28 84 0
  6 29 84 0
  6 30 84 0
  6 31 84 0
  6 32 84 0
  6 33 84 0
  6 34 84 0
  6 35 84 0
  6 36 84 0
  6 37 84 0
  6 38 84 0
  6 39 84 0
  6 40 84 0
  6 41 84 0
  6 42 84 0
  7 1 84 0
  7 2 84 0
  7 3 84 0
  7 4 84 0
  7 5 84 0
  7 6 84 0
  7 7 84 0
  7 8 84 0
  7 9 84 0
  7 10 84 0
  7 11 84 0
  7 12 84 0
  7 13 84 0
  7 14 84 0
  7 15 84 0
  7 16 84 0
  7 17 84 0
  7 18 84 0
  7 19 84 0
  7 20 84 0
  7 21 84 0
  7 22 84 0
  7 23 84 0
  7 24 84 0
  7 25 84 0
  7 26 84 0
  7 27 84 0
  7 28 84 0
  7 29 84 0
  7 30 84 0
  7 31 84 0
  7 32 84 0
  7 33 84 0
  7 34 84 0
  7 35 84 0
  7 36 84 0
  7 37 84 0
  7 38 84 0
  7 39 84 0
  7 40 84 0
  7 41 84 0
  7 42 84 0
  8 1 84 0
  8 2 84 0
  8 3 84 0
  8 4 84 0
  8 5 84 0
  8 6 84 0
  8 7 84 0
  8 8 84 0
  8 9 84 0
  8 10 84 0
  8 11 84 0
  8 12 84 0
  8 13 84 0
  8 14 84 0
  8 15 84 0
  8 16 84 0
  8 17 84 0
  8 18 84 0
  8 19 84 0
  8 20 84 0
  8 21 84 0
  8 22 84 0
  8 23 84 0
  8 24 84 0
  8 25 84 0
  8 26 84 0
  8 27 84 0
  8 28 84 0
  8 29 84 0
  8 30 84 0
  8 31 84 0
  8 32 84 0
  8 33 84 0
  8 34 84 0
  8 35 84 0
  8 36 84 0
  8 37 84 0
  8 38 84 0
  8 39 84 0
  8 40 84 0
  8 41 84 0
  8 42 84 0
  9 1 84 0
  9 2 84 0
  9 3 84 0
  9 4 84 0
  9 5 84 0
  9 6 84 0
  9 7 84 0
  9 8 84 0
  9 9 84 0
  9 10 84 0
  9 11 84 0
  9 12 84 0
  9 13 84 0
  9 14 84 0
  9 15 84 0
  9 16 84 0
  9 17 84 0
  9 18 84 0
  9 19 84 0
  9 20 84 0
  9 21 84 0
  9 22 84 0
  9 23 84 0
  9 24 84 0
  9 25 84 0
  9 26 84 0
  9 27 84 0
  9 28 84 0
  9 29 84 0
  9 30 84 0
  9 31 84 0
  9 32 84 0
  9 33 84 0
  9 34 84 0
  9 35 84 0
  9 36 84 0
  9 37 84 0
  9 38 84 0
  9 39 84 0
  9 40 84 0
  9 41 84 0
  9 42 84 0
  10 1 84 0
  10 2 84 0
  10 3 84 0
  10 4 84 0
  10 5 84 0
  10 6 84 0
  10 7 84 0
  10 8 84 0
  10 9 84 0
  10 10 84 0
  10 11 84 0
  10 12 84 0
  10 13 84 0
  10 14 84 0
  10 15 84 0
  10 16 84 0
  10 17 84 0
  10 18 84 0
  10 19 84 0
  10 20 84 0
  10 21 84 0
  10 22 84 0
  10 23 84 0
  10 24 84 0
  10 25 84 0
  10 26 84 0
  10 27 84 0
  10 28 84 0
  10 29 84 0
  10 30 84 0
  10 31 84 0
  10 32 84 0
  10 33 84 0
  10 34 84 0
  10 35 84 0
  10 36 84 0
  10 37 84 0
  10 38 84 0
  10 39 84 0
  10 40 84 0
  10 41 84 0
  10 42 84 0
  11 1 84 0
  11 2 84 0
  11 3 84 0
  11 4 84 0
  11 5 84 0
  11 6 84 0
  11 7 84 0
  11 8 84 0
  11 9 84 0
  11 10 84 0
  11 11 84 0
  11 12 84 0
  11 13 84 0
  11 14 84 0
  11 15 84 0
  11 16 84 0
  11 17 84 0
  11 18 84 0
  11 19 84 0
  11 20 84 0
  11 21 84 0
  11 22 84 0
  11 23 84 0
  11 24 84 0
  11 25 84 0
  11 26 84 0
  11 27 84 0
  11 28 84 0
  11 29 84 0
  11 30 84 0
  11 31 84 0
  11 32 84 0
  11 33 84 0
  11 34 84 0
  11 35 84 0
  11 36 84 0
  11 37 84 0
  11 38 84 0
  11 39 84 0
  11 40 84 0
  11 41 84 0
  11 42 84 0
  12 1 84 0
  12 2 84 0
  12 3 84 0
  12 4 84 0
  12 5 84 0
  12 6 84 0
  12 7 84 0
  12 8 84 0
  12 9 84 0
  12 10 84 0
  12 11 84 0
  12 12 84 0
  12 13 84 0
  12 14 84 0
  12 15 84 0
  12 16 84 0
  12 17 84 0
  12 18 84 0
  12 19 84 0
  12 20 84 0
  12 21 84 0
  12 22 84 0
  12 23 84 0
  12 24 84 0
  12 25 84 0
  12 26 84 0
  12 27 84 0
  12 28 84 0
  12 29 84 0
  12 30 84 0
  12 31 84 0
  12 32 84 0
  12 33 84 0
  12 34 84 0
  12 35 84 0
  12 36 84 0
  12 37 84 0
  12 38 84 0
  12 39 84 0
  12 40 84 0
  12 41 84 0
  12 42 84 0
  13 1 84 0
  13 2 84 0
  13 3 84 0
  13 4 84 0
  13 5 84 0
  13 6 84 0
  13 7 84 0
  13 8 84 0
  13 9 84 0
  13 10 84 0
  13 11 84 0
  13 12 84 0
  13 13 84 0
  13 14 84 0
  13 15 84 0
  13 16 84 0
  13 17 84 0
  13 18 84 0
  13 19 84 0
  13 20 84 0
  13 21 84 0
  13 22 84 0
  13 23 84 0
  13 24 84 0
  13 25 84 0
  13 26 84 0
  13 27 84 0
  13 28 84 0
  13 29 84 0
  13 30 84 0
  13 31 84 0
  13 32 84 0
  13 33 84 0
  13 34 84 0
  13 35 84 0
  13 36 84 0
  13 37 84 0
  13 38 84 0
  13 39 84 0
  13 40 84 0
  13 41 84 0
  13 42 84 0
  14 1 84 0
  14 2 84 0
  14 3 84 0
  14 4 84 0
  14 5 84 0
  14 6 84 0
  14 7 84 0
  14 8 84 0
  14 9 84 0
  14 10 84 0
  14 11 84 0
  14 12 84 0
  14 13 84 0
  14 14 84 0
  14 15 84 0
  14 16 84 0
  14 17 84 0
  14 18 84 0
  14 19 84 0
  14 20 84 0
  14 21 84 0
  14 22 84 0
  14 23 84 0
  14 24 84 0
  14 25 84 0
  14 26 84 0
  14 27 84 0
  14 28 84 0
  14 29 84 0
  14 30 84 0
  14 31 84 0
  14 32 84 0
  14 33 84 0
  14 34 84 0
  14 35 84 0
  14 36 84 0
  14 37 84 0
  14 38 84 0
  14 39 84 0
  14 40 84 0
  14 41 84 0
  14 42 84 0
  15 1 84 0
  15 2 84 0
  15 3 84 0
  15 4 84 0
  15 5 84 0
  15 6 84 0
  15 7 84 0
  15 8 84 0
  15 9 84 0
  15 10 84 0
  15 11 84 0
  15 12 84 0
  15 13 84 0
  15 14 84 0
  15 15 84 0
  15 16 84 0
  15 17 84 0
  15 18 84 0
  15 19 84 0
  15 20 84 0
  15 21 84 0
  15 22 84 0
  15 23 84 0
  15 24 84 0
  15 25 84 0
  15 26 84 0
  15 27 84 0
  15 28 84 0
  15 29 84 0
  15 30 84 0
  15 31 84 0
  15 32 84 0
  15 33 84 0
  15 34 84 0
  15 35 84 0
  15 36 84 0
  15 37 84 0
  15 38 84 0
  15 39 84 0
  15 40 84 0
  15 41 84 0
  15 42 84 0
  16 1 84 0
  16 2 84 0
  16 3 84 0
  16 4 84 0
  16 5 84 0
  16 6 84 0
  16 7 84 0
  16 8 84 0
  16 9 84 0
  16 10 84 0
  16 11 84 0
  16 12 84 0
  16 13 84 0
  16 14 84 0
  16 15 84 0
  16 16 84 0
  16 17 84 0
  16 18 84 0
  16 19 84 0
  16 20 84 0
  16 21 84 0
  16 22 84 0
  16 23 84 0
  16 24 84 0
  16 25 84 0
  16 26 84 0
  16 27 84 0
  16 28 84 0
  16 29 84 0
  16 30 84 0
  16 31 84 0
  16 32 84 0
  16 33 84 0
  16 34 84 0
  16 35 84 0
  16 36 84 0
  16 37 84 0
  16 38 84 0
  16 39 84 0
  16 40 84 0
  16 41 84 0
  16 42 84 0
  17 1 84 0
  17 2 84 0
  17 3 84 0
  17 4 84 0
  17 5 84 0
  17 6 84 0
  17 7 84 0
  17 8 84 0
  17 9 84 0
  17 10 84 0
  17 11 84 0
  17 12 84 0
  17 13 84 0
  17 14 84 0
  17 15 84 0
  17 16 84 0
  17 17 84 0
  17 18 84 0
  17 19 84 0
  17 20 84 0
  17 21 84 0
  17 22 84 0
  17 23 84 0
  17 24 84 0
  17 25 84 0
  17 26 84 0
  17 27 84 0
  17 28 84 0
  17 29 84 0
  17 30 84 0
  17 31 84 0
  17 32 84 0
  17 33 84 0
  17 34 84 0
  17 35 84 0
  17 36 84 0
  17 37 84 0
  17 38 84 0
  17 39 84 0
  17 40 84 0
  17 41 84 0
  17 42 84 0
  18 1 84 0
  18 2 84 0
  18 3 84 0
  18 4 84 0
  18 5 84 0
  18 6 84 0
  18 7 84 0
  18 8 84 0
  18 9 84 0
  18 10 84 0
  18 11 84 0
  18 12 84 0
  18 13 84 0
  18 14 84 0
  18 15 84 0
  18 16 84 0
  18 17 84 0
  18 18 84 0
  18 19 84 0
  18 20 84 0
  18 21 84 0
  18 22 84 0
  18 23 84 0
  18 24 84 0
  18 25 84 0
  18 26 84 0
  18 27 84 0
  18 28 84 0
  18 29 84 0
  18 30 84 0
  18 31 84 0
  18 32 84 0
  18 33 84 0
  18 34 84 0
  18 35 84 0
  18 36 84 0
  18 37 84 0
  18 38 84 0
  18 39 84 0
  18 40 84 0
  18 41 84 0
  18 42 84 0
  19 1 84 0
  19 2 84 0
  19 3 84 0
  19 4 84 0
  19 5 84 0
  19 6 84 0
  19 7 84 0
  19 8 84 0
  19 9 84 0
  19 10 84 0
  19 11 84 0
  19 12 84 0
  19 13 84 0
  19 14 84 0
  19 15 84 0
  19 16 84 0
  19 17 84 0
  19 18 84 0
  19 19 84 0
  19 20 84 0
  19 21 84 0
  19 22 84 0
  19 23 84 0
  19 24 84 0
  19 25 84 0
  19 26 84 0
  19 27 84 0
  19 28 84 0
  19 29 84 0
  19 30 84 0
  19 31 84 0
  19 32 84 0
  19 33 84 0
  19 34 84 0
  19 35 84 0
  19 36 84 0
  19 37 84 0
  19 38 84 0
  19 39 84 0
  19 40 84 0
  19 41 84 0
  19 42 84 0
  20 1 84 0
  20 2 84 0
  20 3 84 0
  20 4 84 0
  20 5 84 0
  20 6 84 0
  20 7 84 0
  20 8 84 0
  20 9 84 0
  20 10 84 0
  20 11 84 0
  20 12 84 0
  20 13 84 0
  20 14 84 0
  20 15 84 0