# File generated by Flopy version 3.8.2 on 01/22/2025 at 12:05:55.
BEGIN options
END options

BEGIN packages
  OC6  model_new_resolution.oc  oc
  IC6  model_new_resolution.ic  ic
  DIS6  model_new_resolution.dis  dis
  NPF6  model_new_resolution.npf  npf
  CHD6  model_new_resolution.chd  chd_0
END packages

