# File generated by Flopy version 3.8.2 on 01/22/2025 at 12:08:45.
BEGIN options
  XORIGIN       0.00000000
  YORIGIN       0.00000000
END options

BEGIN dimensions
  NLAY  42
  NROW  42
  NCOL  84
END dimensions

BEGIN griddata
  delr
    CONSTANT       3.00000000
  delc
    CONSTANT       3.00000000
  top
    INTERNAL  FACTOR  1.0
        -4.92000961      -4.92000961      -4.92000961      -4.92000961      -4.92000961      -4.92000961      -4.92000961      -4.92000961      -4.92000961      -4.92000961      -4.92000961      -4.92000961      -4.92000961      -4.92000961      -4.92000961      -4.92000961      -4.92000961      -4.92000961      -4.92000961      -4.92000961      -4.92000961      -4.92000961      -4.92000961      -4.92000961      -4.92000961      -4.92000961      -4.92000961      -4.92000961      -4.92000961      -4.92000961      -4.92000961      -4.92000961      -4.92000961      -4.92000961      -4.92000961      -4.92000961      -4.92000961      -4.92000961      -4.92000961      -4.92000961      -4.92000961      -4.92000961      -4.92000961      -4.92000961      -4.92000961      -4.92000961      -4.92000961      -4.92000961      -4.92000961      -4.92000961      -4.92000961      -4.92000961      -4.92000961      -4.92000961      -4.92000961      -4.92000961      -4.92000961      -4.92000961      -4.92000961      -4.92000961      -4.92000961      -4.92000961      -4.92000961      -4.92000961      -4.92000961      -4.92000961      -4.92000961      -4.92000961      -4.92000961      -4.92000961      -4.92000961      -4.92000961      -4.92000961      -4.92000961      -4.92000961      -4.92000961      -4.92000961      -4.92000961      -4.92000961      -4.92000961      -4.92000961      -4.92000961      -4.92000961      -4.92000961
        -4.92000961      -4.92000961      -4.92000961      -4.92000961      -4.92000961      -4.92000961      -4.92000961      -4.92000961      -4.92000961      -4.92000961      -4.92000961      -4.92000961      -4.92000961      -4.92000961      -4.92000961      -4.92000961      -4.92000961      -4.92000961      -4.92000961      -4.92000961      -4.92000961      -4.92000961      -4.92000961      -4.92000961      -4.92000961      -4.92000961      -4.92000961      -4.92000961      -4.92000961      -4.92000961      -4.92000961      -4.92000961      -4.92000961      -4.92000961      -4.92000961      -4.92000961      -4.92000961      -4.92000961      -4.92000961      -4.92000961      -4.92000961      -4.92000961      -4.92000961      -4.92000961      -4.92000961      -4.92000961      -4.92000961      -4.92000961      -4.92000961      -4.92000961      -4.92000961      -4.92000961      -4.92000961      -4.92000961      -4.92000961      -4.92000961      -4.92000961      -4.92000961      -4.92000961      -4.92000961      -4.92000961      -4.92000961      -4.92000961      -4.92000961      -4.92000961      -4.92000961      -4.92000961      -4.92000961      -4.92000961      -4.92000961      -4.92000961      -4.92000961      -4.92000961      -4.92000961      -4.92000961      -4.92000961      -4.92000961      -4.92000961      -4.92000961      -4.92000961      -4.92000961      -4.92000961      -4.92000961      -4.92000961
        -4.92000961      -4.92000961      -4.92000961      -4.92000961      -4.92000961      -4.92000961      -4.92000961      -4.92000961      -4.92000961      -4.92000961      -4.92000961      -4.92000961      -4.92000961      -4.92000961      -4.92000961      -4.92000961      -4.92000961      -4.92000961      -4.92000961      -4.92000961      -4.92000961      -4.92000961      -4.92000961      -4.92000961      -4.92000961      -4.92000961      -4.92000961      -4.92000961      -4.92000961      -4.92000961      -4.92000961      -4.92000961      -4.92000961      -4.92000961      -4.92000961      -4.92000961      -4.92000961      -4.92000961      -4.92000961      -4.92000961      -4.92000961      -4.92000961      -4.92000961      -4.92000961      -4.92000961      -4.92000961      -4.92000961      -4.92000961      -4.92000961      -4.92000961      -4.92000961      -4.92000961      -4.92000961      -4.92000961      -4.92000961      -4.92000961      -4.92000961      -4.92000961      -4.92000961      -4.92000961      -4.92000961      -4.92000961      -4.92000961      -4.92000961      -4.92000961      -4.92000961      -4.92000961      -4.92000961      -4.92000961      -4.92000961      -4.92000961      -4.92000961      -4.92000961      -4.92000961      -4.92000961      -4.92000961      -4.92000961      -4.92000961      -4.92000961      -4.92000961      -4.92000961      -4.92000961      -4.92000961      -4.92000961
        -4.92000961      -4.92000961      -4.92000961      -4.92000961      -4.92000961      -4.92000961      -4.92000961      -4.92000961      -4.92000961      -4.92000961      -4.92000961      -4.92000961      -4.92000961      -4.92000961      -4.92000961      -4.92000961      -4.92000961      -4.92000961      -4.92000961      -4.92000961      -4.92000961      -4.92000961      -4.92000961      -4.92000961      -4.92000961      -4.92000961      -4.92000961      -4.92000961      -4.92000961      -4.92000961      -4.92000961      -4.92000961      -4.92000961      -4.92000961      -4.92000961      -4.92000961      -4.92000961      -4.92000961      -4.92000961      -4.92000961      -4.92000961      -4.92000961      -4.92000961      -4.92000961      -4.92000961      -4.92000961      -4.92000961      -4.92000961      -4.92000961      -4.92000961      -4.92000961      -4.92000961      -4.92000961      -4.92000961      -4.92000961      -4.92000961      -4.92000961      -4.92000961      -4.92000961      -4.92000961      -4.92000961      -4.92000961      -4.92000961      -4.92000961      -4.92000961      -4.92000961      -4.92000961      -4.92000961      -4.92000961      -4.92000961      -4.92000961      -4.92000961      -4.92000961      -4.92000961      -4.92000961      -4.92000961      -4.92000961      -4.92000961      -4.92000961      -4.92000961      -4.92000961      -4.92000961      -4.92000961      -4.92000961
        -4.92000961      -4.92000961      -4.92000961      -4.92000961      -4.92000961      -4.92000961      -4.92000961      -4.92000961      -4.92000961      -4.92000961      -4.92000961      -4.92000961      -4.92000961      -4.92000961      -4.92000961      -4.92000961      -4.92000961      -4.92000961      -4.92000961      -4.92000961      -4.92000961      -4.92000961      -4.92000961      -4.92000961      -4.92000961      -4.92000961      -4.92000961      -4.92000961      -4.92000961      -4.92000961      -4.92000961      -4.92000961      -4.92000961      -4.92000961      -4.92000961      -4.92000961      -4.92000961      -4.92000961      -4.92000961      -4.92000961      -4.92000961      -4.92000961      -4.92000961      -4.92000961      -4.92000961      -4.92000961      -4.92000961      -4.92000961      -4.92000961      -4.92000961      -4.92000961      -4.92000961      -4.92000961      -4.92000961      -4.92000961      -4.92000961      -4.92000961      -4.92000961      -4.92000961      -4.92000961      -4.92000961      -4.92000961      -4.92000961      -4.92000961      -4.92000961      -4.92000961      -4.92000961      -4.92000961      -4.92000961      -4.92000961      -4.92000961      -4.92000961      -4.92000961      -4.92000961      -4.92000961      -4.92000961      -4.92000961      -4.92000961      -4.92000961      -4.92000961      -4.92000961      -4.92000961      -4.92000961      -4.92000961
        -4.92000961      -4.92000961      -4.92000961      -4.92000961      -4.92000961      -4.92000961      -4.92000961      -4.92000961      -4.92000961      -4.92000961      -4.92000961      -4.92000961      -4.92000961      -4.92000961      -4.92000961      -4.92000961      -4.92000961      -4.92000961      -4.92000961      -4.92000961      -4.92000961      -4.92000961      -4.92000961      -4.92000961      -4.92000961      -4.92000961      -4.92000961      -4.92000961      -4.92000961      -4.92000961      -4.92000961      -4.92000961      -4.92000961      -4.92000961      -4.92000961      -4.92000961      -4.92000961      -4.92000961      -4.92000961      -4.92000961      -4.92000961      -4.92000961      -4.92000961      -4.92000961      -4.92000961      -4.92000961      -4.92000961      -4.92000961      -4.92000961      -4.92000961      -4.92000961      -4.92000961      -4.92000961      -4.92000961      -4.92000961      -4.92000961      -4.92000961      -4.92000961      -4.92000961      -4.92000961      -4.92000961      -4.92000961      -4.92000961      -4.92000961      -4.92000961      -4.92000961      -4.92000961      -4.92000961      -4.92000961      -4.92000961      -4.92000961      -4.92000961      -4.92000961      -4.92000961      -4.92000961      -4.92000961      -4.92000961      -4.92000961      -4.92000961      -4.92000961      -4.92000961      -4.92000961      -4.92000961      -4.92000961
        -4.92000961      -4.92000961      -4.92000961      -4.92000961      -4.92000961      -4.92000961      -4.92000961      -4.92000961      -4.92000961      -4.92000961      -4.92000961      -4.92000961      -4.92000961      -4.92000961      -4.92000961      -4.92000961      -4.92000961      -4.92000961      -4.92000961      -4.92000961      -4.92000961      -4.92000961      -4.92000961      -4.92000961      -4.92000961      -4.92000961      -4.92000961      -4.92000961      -4.92000961      -4.92000961      -4.92000961      -4.92000961      -4.92000961      -4.92000961      -4.92000961      -4.92000961      -4.92000961      -4.92000961      -4.92000961      -4.92000961      -4.92000961      -4.92000961      -4.92000961      -4.92000961      -4.92000961      -4.92000961      -4.92000961      -4.92000961      -4.92000961      -4.92000961      -4.92000961      -4.92000961      -4.92000961      -4.92000961      -4.92000961      -4.92000961      -4.92000961      -4.92000961      -4.92000961      -4.92000961      -4.92000961      -4.92000961      -4.92000961      -4.92000961      -4.92000961      -4.92000961      -4.92000961      -4.92000961      -4.92000961      -4.92000961      -4.92000961      -4.92000961      -4.92000961      -4.92000961      -4.92000961      -4.92000961      -4.92000961      -4.92000961      -4.92000961      -4.92000961      -4.92000961      -4.92000961      -4.92000961      -4.92000961
        -4.92000961      -4.92000961      -4.92000961      -4.92000961      -4.92000961      -4.92000961      -4.92000961      -4.92000961      -4.92000961      -4.92000961      -4.92000961      -4.92000961      -4.92000961      -4.92000961      -4.92000961      -4.92000961      -4.92000961      -4.92000961      -4.92000961      -4.92000961      -4.92000961      -4.92000961      -4.92000961      -4.92000961      -4.92000961      -4.92000961      -4.92000961      -4.92000961      -4.92000961      -4.92000961      -4.92000961      -4.92000961      -4.92000961      -4.92000961      -4.92000961      -4.92000961      -4.92000961      -4.92000961      -4.92000961      -4.92000961      -4.92000961      -4.92000961      -4.92000961      -4.92000961      -4.92000961      -4.92000961      -4.92000961      -4.92000961      -4.92000961      -4.92000961      -4.92000961      -4.92000961      -4.92000961      -4.92000961      -4.92000961      -4.92000961      -4.92000961      -4.92000961      -4.92000961      -4.92000961      -4.92000961      -4.92000961      -4.92000961      -4.92000961      -4.92000961      -4.92000961      -4.92000961      -4.92000961      -4.92000961      -4.92000961      -4.92000961      -4.92000961      -4.92000961      -4.92000961      -4.92000961      -4.92000961      -4.92000961      -4.92000961      -4.92000961      -4.92000961      -4.92000961      -4.92000961      -4.92000961      -4.92000961
        -4.92000961      -4.92000961      -4.92000961      -4.92000961      -4.92000961      -4.92000961      -4.92000961      -4.92000961      -4.92000961      -4.92000961      -4.92000961      -4.92000961      -4.92000961      -4.92000961      -4.92000961      -4.92000961      -4.92000961      -4.92000961      -4.92000961      -4.92000961      -4.92000961      -4.92000961      -4.92000961      -4.92000961      -4.92000961      -4.92000961      -4.92000961      -4.92000961      -4.92000961      -4.92000961      -4.92000961      -4.92000961      -4.92000961      -4.92000961      -4.92000961      -4.92000961      -4.92000961      -4.92000961      -4.92000961      -4.92000961      -4.92000961      -4.92000961      -4.92000961      -4.92000961      -4.92000961      -4.92000961      -4.92000961      -4.92000961      -4.92000961      -4.92000961      -4.92000961      -4.92000961      -4.92000961      -4.92000961      -4.92000961      -4.92000961      -4.92000961      -4.92000961      -4.92000961      -4.92000961      -4.92000961      -4.92000961      -4.92000961      -4.92000961      -4.92000961      -4.92000961      -4.92000961      -4.92000961      -4.92000961      -4.92000961      -4.92000961      -4.92000961      -4.92000961      -4.92000961      -4.92000961      -4.92000961      -4.92000961      -4.92000961      -4.92000961      -4.92000961      -4.92000961      -4.92000961      -4.92000961      -4.92000961
        -4.92000961      -4.92000961      -4.92000961      -4.92000961      -4.92000961      -4.92000961      -4.92000961      -4.92000961      -4.92000961      -4.92000961      -4.92000961      -4.92000961      -4.92000961      -4.92000961      -4.92000961      -4.92000961      -4.92000961      -4.92000961      -4.92000961      -4.92000961      -4.92000961      -4.92000961      -4.92000961      -4.92000961      -4.92000961      -4.92000961      -4.92000961      -4.92000961      -4.92000961      -4.92000961      -4.92000961      -4.92000961      -4.92000961      -4.92000961      -4.92000961      -4.92000961      -4.92000961      -4.92000961      -4.92000961      -4.92000961      -4.92000961      -4.92000961      -4.92000961      -4.92000961      -4.92000961      -4.92000961      -4.92000961      -4.92000961      -4.92000961      -4.92000961      -4.92000961      -4.92000961      -4.92000961      -4.92000961      -4.92000961      -4.92000961      -4.92000961      -4.92000961      -4.92000961      -4.92000961      -4.92000961      -4.92000961      -4.92000961      -4.92000961      -4.92000961      -4.92000961      -4.92000961      -4.92000961      -4.92000961      -4.92000961      -4.92000961      -4.92000961      -4.92000961      -4.92000961      -4.92000961      -4.92000961      -4.92000961      -4.92000961      -4.92000961      -4.92000961      -4.92000961      -4.92000961      -4.92000961      -4.92000961
        -4.92000961      -4.92000961      -4.92000961      -4.92000961      -4.92000961      -4.92000961      -4.92000961      -4.92000961      -4.92000961      -4.92000961      -4.92000961      -4.92000961      -4.92000961      -4.92000961      -4.92000961      -4.92000961      -4.92000961      -4.92000961      -4.92000961      -4.92000961      -4.92000961      -4.92000961      -4.92000961      -4.92000961      -4.92000961      -4.92000961      -4.92000961      -4.92000961      -4.92000961      -4.92000961      -4.92000961      -4.92000961      -4.92000961      -4.92000961      -4.92000961      -4.92000961      -4.92000961      -4.92000961      -4.92000961      -4.92000961      -4.92000961      -4.92000961      -4.92000961      -4.92000961      -4.92000961      -4.92000961      -4.92000961      -4.92000961      -4.92000961      -4.92000961      -4.92000961      -4.92000961      -4.92000961      -4.92000961      -4.92000961      -4.92000961      -4.92000961      -4.92000961      -4.92000961      -4.92000961      -4.92000961      -4.92000961      -4.92000961      -4.92000961      -4.92000961      -4.92000961      -4.92000961      -4.92000961      -4.92000961      -4.92000961      -4.92000961      -4.92000961      -4.92000961      -4.92000961      -4.92000961      -4.92000961      -4.92000961      -4.92000961      -4.92000961      -4.92000961      -4.92000961      -4.92000961      -4.92000961      -4.92000961
        -4.92000961      -4.92000961      -4.92000961      -4.92000961      -4.92000961      -4.92000961      -4.92000961      -4.92000961      -4.92000961      -4.92000961      -4.92000961      -4.92000961      -4.92000961      -4.92000961      -4.92000961      -4.92000961      -4.92000961      -4.92000961      -4.92000961      -4.92000961      -4.92000961      -4.92000961      -4.92000961      -4.92000961      -4.92000961      -4.92000961      -4.92000961      -4.92000961      -4.92000961      -4.92000961      -4.92000961      -4.92000961      -4.92000961      -4.92000961      -4.92000961      -4.92000961      -4.92000961      -4.92000961      -4.92000961      -4.92000961      -4.92000961      -4.92000961      -4.92000961      -4.92000961      -4.92000961      -4.92000961      -4.92000961      -4.92000961      -4.92000961      -4.92000961      -4.92000961      -4.92000961      -4.92000961      -4.92000961      -4.92000961      -4.92000961      -4.92000961      -4.92000961      -4.92000961      -4.92000961      -4.92000961      -4.92000961      -4.92000961      -4.92000961      -4.92000961      -4.92000961      -4.92000961      -4.92000961      -4.92000961      -4.92000961      -4.92000961      -4.92000961      -4.92000961      -4.92000961      -4.92000961      -4.92000961      -4.92000961      -4.92000961      -4.92000961      -4.92000961      -4.92000961      -4.92000961      -4.92000961      -4.92000961
        -4.92000961      -4.92000961      -4.92000961      -4.92000961      -4.92000961      -4.92000961      -4.92000961      -4.92000961      -4.92000961      -4.92000961      -4.92000961      -4.92000961      -4.92000961      -4.92000961      -4.92000961      -4.92000961      -4.92000961      -4.92000961      -4.92000961      -4.92000961      -4.92000961      -4.92000961      -4.92000961      -4.92000961      -4.92000961      -4.92000961      -4.92000961      -4.92000961      -4.92000961      -4.92000961      -4.92000961      -4.92000961      -4.92000961      -4.92000961      -4.92000961      -4.92000961      -4.92000961      -4.92000961      -4.92000961      -4.92000961      -4.92000961      -4.92000961      -4.92000961      -4.92000961      -4.92000961      -4.92000961      -4.92000961      -4.92000961      -4.92000961      -4.92000961      -4.92000961      -4.92000961      -4.92000961      -4.92000961      -4.92000961      -4.92000961      -4.92000961      -4.92000961      -4.92000961      -4.92000961      -4.92000961      -4.92000961      -4.92000961      -4.92000961      -4.92000961      -4.92000961      -4.92000961      -4.92000961      -4.92000961      -4.92000961      -4.92000961      -4.92000961      -4.92000961      -4.92000961      -4.92000961      -4.92000961      -4.92000961      -4.92000961      -4.92000961      -4.92000961      -4.92000961      -4.92000961      -4.92000961      -4.92000961
        -4.92000961      -4.92000961      -4.92000961      -4.92000961      -4.92000961      -4.92000961      -4.92000961      -4.92000961      -4.92000961      -4.92000961      -4.92000961      -4.92000961      -4.92000961      -4.92000961      -4.92000961      -4.92000961      -4.92000961      -4.92000961      -4.92000961      -4.92000961      -4.92000961      -4.92000961      -4.92000961      -4.92000961      -4.92000961      -4.92000961      -4.92000961      -4.92000961      -4.92000961      -4.92000961      -4.92000961      -4.92000961      -4.92000961      -4.92000961      -4.92000961      -4.92000961      -4.92000961      -4.92000961      -4.92000961      -4.92000961      -4.92000961      -4.92000961      -4.92000961      -4.92000961      -4.92000961      -4.92000961      -4.92000961      -4.92000961      -4.92000961      -4.92000961      -4.92000961      -4.92000961      -4.92000961      -4.92000961      -4.92000961      -4.92000961      -4.92000961      -4.92000961      -4.92000961      -4.92000961      -4.92000961      -4.92000961      -4.92000961      -4.92000961      -4.92000961      -4.92000961      -4.92000961      -4.92000961      -4.92000961      -4.92000961      -4.92000961      -4.92000961      -4.92000961      -4.92000961      -4.92000961      -4.92000961      -4.92000961      -4.92000961      -4.92000961      -4.92000961      -4.92000961      -4.92000961      -4.92000961      -4.92000961
        -4.92000961      -4.92000961      -4.92000961      -4.92000961      -4.92000961      -4.92000961      -4.92000961      -4.92000961      -4.92000961      -4.92000961      -4.92000961      -4.92000961      -4.92000961      -4.92000961      -4.92000961      -4.92000961      -4.92000961      -4.92000961      -4.92000961      -4.92000961      -4.92000961      -4.92000961      -4.92000961      -4.92000961      -4.92000961      -4.92000961      -4.92000961      -4.92000961      -4.92000961      -4.92000961      -4.92000961      -4.92000961      -4.92000961      -4.92000961      -4.92000961      -4.92000961      -4.92000961      -4.92000961      -4.92000961      -4.92000961      -4.92000961      -4.92000961      -4.92000961      -4.92000961      -4.92000961      -4.92000961      -4.92000961      -4.92000961      -4.92000961      -4.92000961      -4.92000961      -4.92000961      -4.92000961      -4.92000961      -4.92000961      -4.92000961      -4.92000961      -4.92000961      -4.92000961      -4.92000961      -4.92000961      -4.92000961      -4.92000961      -4.92000961      -4.92000961      -4.92000961      -4.92000961      -4.92000961      -4.92000961      -4.92000961      -4.92000961      -4.92000961      -4.92000961      -4.92000961      -4.92000961      -4.92000961      -4.92000961      -4.92000961      -4.92000961      -4.92000961      -4.92000961      -4.92000961      -4.92000961      -4.92000961
        -4.92000961      -4.92000961      -4.92000961      -4.92000961      -4.92000961      -4.92000961      -4.92000961      -4.92000961      -4.92000961      -4.92000961      -4.92000961      -4.92000961      -4.92000961      -4.92000961      -4.92000961      -4.92000961      -4.92000961      -4.92000961      -4.92000961      -4.92000961      -4.92000961      -4.92000961      -4.92000961      -4.92000961      -4.92000961      -4.92000961      -4.92000961      -4.92000961      -4.92000961      -4.92000961      -4.92000961      -4.92000961      -4.92000961      -4.92000961      -4.92000961      -4.92000961      -4.92000961      -4.92000961      -4.92000961      -4.92000961      -4.92000961      -4.92000961      -4.92000961      -4.92000961      -4.92000961      -4.92000961      -4.92000961      -4.92000961      -4.92000961      -4.92000961      -4.92000961      -4.92000961      -4.92000961      -4.92000961      -4.92000961      -4.92000961      -4.92000961      -4.92000961      -4.92000961      -4.92000961      -4.92000961      -4.92000961      -4.92000961      -4.92000961      -4.92000961      -4.92000961      -4.92000961      -4.92000961      -4.92000961      -4.92000961      -4.92000961      -4.92000961      -4.92000961      -4.92000961      -4.92000961      -4.92000961      -4.92000961      -4.92000961      -4.92000961      -4.92000961      -4.92000961      -4.92000961      -4.92000961      -4.92000961
        -4.92000961      -4.92000961      -4.92000961      -4.92000961      -4.92000961      -4.92000961      -4.92000961      -4.92000961      -4.92000961      -4.92000961      -4.92000961      -4.92000961      -4.92000961      -4.92000961      -4.92000961      -4.92000961      -4.92000961      -4.92000961      -4.92000961      -4.92000961      -4.92000961      -4.92000961      -4.92000961      -4.92000961      -4.92000961      -4.92000961      -4.92000961      -4.92000961      -4.92000961      -4.92000961      -4.92000961      -4.92000961      -4.92000961      -4.92000961      -4.92000961      -4.92000961      -4.92000961      -4.92000961      -4.92000961      -4.92000961      -4.92000961      -4.92000961      -4.92000961      -4.92000961      -4.92000961      -4.92000961      -4.92000961      -4.92000961      -4.92000961      -4.92000961      -4.92000961      -4.92000961      -4.92000961      -4.92000961      -4.92000961      -4.92000961      -4.92000961      -4.92000961      -4.92000961      -4.92000961      -4.92000961      -4.92000961      -4.92000961      -4.92000961      -4.92000961      -4.92000961      -4.92000961      -4.92000961      -4.92000961      -4.92000961      -4.92000961      -4.92000961      -4.92000961      -4.92000961      -4.92000961      -4.92000961      -4.92000961      -4.92000961      -4.92000961      -4.92000961      -4.92000961      -4.92000961      -4.92000961      -4.92000961
        -4.92000961      -4.92000961      -4.92000961      -4.92000961      -4.92000961      -4.92000961      -4.92000961      -4.92000961      -4.92000961      -4.92000961      -4.92000961      -4.92000961      -4.92000961      -4.92000961      -4.92000961      -4.92000961      -4.92000961      -4.92000961      -4.92000961      -4.92000961      -4.92000961      -4.92000961      -4.92000961      -4.92000961      -4.92000961      -4.92000961      -4.92000961      -4.92000961      -4.92000961      -4.92000961      -4.92000961      -4.92000961      -4.92000961      -4.92000961      -4.92000961      -4.92000961      -4.92000961      -4.92000961      -4.92000961      -4.92000961      -4.92000961      -4.92000961      -4.92000961      -4.92000961      -4.92000961      -4.92000961      -4.92000961      -4.92000961      -4.92000961      -4.92000961      -4.92000961      -4.92000961      -4.92000961      -4.92000961      -4.92000961      -4.92000961      -4.92000961      -4.92000961      -4.92000961      -4.92000961      -4.92000961      -4.92000961      -4.92000961      -4.92000961      -4.92000961      -4.92000961      -4.92000961      -4.92000961      -4.92000961      -4.92000961      -4.92000961      -4.92000961      -4.92000961      -4.92000961      -4.92000961      -4.92000961      -4.92000961      -4.92000961      -4.92000961      -4.92000961      -4.92000961      -4.92000961      -4.92000961      -4.92000961
        -4.92000961      -4.92000961      -4.92000961      -4.92000961      -4.92000961      -4.92000961      -4.92000961      -4.92000961      -4.92000961      -4.92000961      -4.92000961      -4.92000961      -4.92000961      -4.92000961      -4.92000961      -4.92000961      -4.92000961      -4.92000961      -4.92000961      -4.92000961      -4.92000961      -4.92000961      -4.92000961      -4.92000961      -4.92000961      -4.92000961      -4.92000961      -4.92000961      -4.92000961      -4.92000961      -4.92000961      -4.92000961      -4.92000961      -4.92000961      -4.92000961      -4.92000961      -4.92000961      -4.92000961      -4.92000961      -4.92000961      -4.92000961      -4.92000961      -4.92000961      -4.92000961      -4.92000961      -4.92000961      -4.92000961      -4.92000961      -4.92000961      -4.92000961      -4.92000961      -4.92000961      -4.92000961      -4.92000961      -4.92000961      -4.92000961      -4.92000961      -4.92000961      -4.92000961      -4.92000961      -4.92000961      -4.92000961      -4.92000961      -4.92000961      -4.92000961      -4.92000961      -4.92000961      -4.92000961      -4.92000961      -4.92000961      -4.92000961      -4.92000961      -4.92000961      -4.92000961      -4.92000961      -4.92000961      -4.92000961      -4.92000961      -4.92000961      -4.92000961      -4.92000961      -4.92000961      -4.92000961      -4.92000961
        -4.92000961      -4.92000961      -4.92000961      -4.92000961      -4.92000961      -4.92000961      -4.92000961      -4.92000961      -4.92000961      -4.92000961      -4.92000961      -4.92000961      -4.92000961      -4.92000961      -4.92000961      -4.92000961      -4.92000961      -4.92000961      -4.92000961      -4.92000961      -4.92000961      -4.92000961      -4.92000961      -4.92000961      -4.92000961      -4.92000961      -4.92000961      -4.92000961      -4.92000961      -4.92000961      -4.92000961      -4.92000961      -4.92000961      -4.92000961      -4.92000961      -4.92000961      -4.92000961      -4.92000961      -4.92000961      -4.92000961      -4.92000961      -4.92000961      -4.92000961      -4.92000961      -4.92000961      -4.92000961      -4.92000961      -4.92000961      -4.92000961      -4.92000961      -4.92000961      -4.92000961      -4.92000961      -4.92000961      -4.92000961      -4.92000961      -4.92000961      -4.92000961      -4.92000961      -4.92000961      -4.92000961      -4.92000961      -4.92000961      -4.92000961      -4.92000961      -4.92000961      -4.92000961      -4.92000961      -4.92000961      -4.92000961      -4.92000961      -4.92000961      -4.92000961      -4.92000961      -4.92000961      -4.92000961      -4.92000961      -4.92000961      -4.92000961      -4.92000961      -4.92000961      -4.92000961      -4.92000961      -4.92000961