# File generated by Flopy version 3.8.2 on 01/22/2025 at 12:08:48.
BEGIN options
  COMPLEXITY  moderate
END options

