# File generated by Flopy version 3.8.2 on 01/24/2025 at 09:13:58.
BEGIN options
  COMPLEXITY  moderate
END options

