# File generated by Flopy version 3.9.2 on 06/10/2025 at 16:30:24.
BEGIN options
  SAVE_FLOWS
  SAVE_SPECIFIC_DISCHARGE
  SAVE_SATURATION
END options

BEGIN griddata
  icelltype
    CONSTANT  0
  k  LAYERED
    INTERNAL  FACTOR  1.0
      1.52118619E-05  4.00573640E-07  3.96557539E-07  3.96567145E-07  4.20725769E-07  6.10766376E-05  6.10766376E-05  6.10766376E-05  6.10766376E-05  6.10766376E-05  6.10766376E-05  6.10766376E-05  6.10766376E-05  6.10766376E-05  6.10766376E-05  6.10766376E-05  2.17425892E-07  1.77922075E-07  1.44903140E-07  1.30148734E-07  1.26133216E-07  9.16103318E-08  8.75065780E-08  1.02828480E-07  1.35209362E-07  1.83661953E-07  2.84825489E-07  1.33163030E-05  1.62620800E-05  3.71728602E-05  4.78820257E-05  8.09518169E-05  9.97231909E-05  9.52520495E-05  1.16233074E-04  1.11861264E-04  8.67214985E-05  7.61448391E-05  6.66894412E-05  4.79199443E-05  3.00133452E-05  3.33120952E-05  4.05748779E-06  3.31334081E-06  2.93842231E-06  2.31351896E-06  2.40964437E-06  2.44493822E-06  2.54126235E-06  2.41081557E-06  2.34005188E-06  6.10766376E-05  6.10766376E-05  6.10766376E-05  6.10766376E-05  6.10766376E-05  8.02380418E-06  8.82351924E-06  9.64409173E-06  9.84190501E-06  7.59641853E-06  5.22801929E-06  3.79446897E-06  1.23907384E-05  3.10445503E-05  6.56224001E-05  1.44620135E-04  2.71288038E-04  3.22644191E-04  3.61335347E-04  4.06651438E-04  5.11897844E-04  5.97809674E-04  6.16848178E-04  6.92064292E-04  6.90616027E-04  6.09720708E-04  5.50678815E-04  4.85765020E-04  4.73430380E-04  4.80654271E-04  5.03626594E-04  5.33430080E-04  5.75874292E-04  7.00938108E-04  5.67990355E-04  6.32074021E-04  6.78031356E-04  6.48660760E-04  4.57195652E-04  4.18957439E-04  4.32846136E-04  3.64355394E-04  3.32806667E-04  3.89845809E-04  1.97045025E-04  1.48116975E-04  9.38829980E-05  7.23985067E-05  4.30046384E-05  1.90326627E-05  1.07634378E-05  1.00306788E-05  1.01391997E-05  9.45853117E-06  8.09866924E-06  1.12704242E-06  8.83027724E-07  6.10766376E-05  6.10766376E-05  6.10766376E-05  6.10766376E-05  6.10766376E-05  6.10766376E-05  6.10766376E-05  6.10766376E-05  4.17405827E-04  3.77680728E-04  2.83004600E-04  2.52071564E-04  2.04434618E-04  1.68714032E-04  1.13009337E-04  8.10553829E-05  6.71630987E-05  5.14226704E-05  1.98594571E-05  5.90121886E-07  8.61979970E-07  1.17896320E-06  1.62264382E-06  2.01655371E-06  2.36412575E-06  2.23833240E-06  2.44545686E-06  2.43517616E-06  2.02296246E-06  1.63151401E-06  1.42480167E-06  1.26770476E-06
      1.38773948E-05  8.74433408E-06  2.70077408E-07  3.14077113E-07  3.46648619E-07  3.92891479E-07  6.10766376E-05  6.10766376E-05  6.10766376E-05  6.10766376E-05  6.10766376E-05  6.10766376E-05  6.10766376E-05  6.10766376E-05  6.10766376E-05  6.10766376E-05  1.83458525E-07  1.32421420E-07  1.11557014E-07  8.82623965E-08  8.64487433E-08  6.77922287E-08  6.16661211E-08  6.37074322E-08  8.49427906E-08  1.11890571E-07  1.60715416E-07  2.79345272E-07  1.26809000E-05  1.69511350E-05  3.82908620E-05  4.70921477E-05  9.48689485E-05  1.12751077E-04  1.35760696E-04  1.36651608E-04  1.09008717E-04  9.64357532E-05  5.19157693E-05  3.19985120E-05  3.65228152E-06  3.43053716E-06  3.16689579E-06  2.89056015E-06  3.15127500E-06  2.54713109E-06  2.34831441E-06  2.56457201E-06  2.23430925E-06  2.35550260E-06  1.78668313E-06  1.80892096E-06  1.78593586E-06  2.19076696E-06  3.06274387E-06  3.70676867E-06  4.73983619E-06  6.50734137E-06  7.22101004E-06  8.00303224E-06  6.01816646E-06  4.19540174E-06  3.37011215E-06  1.55366979E-05  3.72211762E-05  7.81286362E-05  1.87439422E-04  3.27777088E-04  3.86544649E-04  3.42492945E-04  3.72270675E-04  4.22324985E-04  5.21765207E-04  5.45599672E-04  5.74944192E-04  5.63049107E-04  5.64369780E-04  5.14834072E-04  4.53854853E-04  4.32549277E-04  4.16328869E-04  4.19275748E-04  4.30516462E-04  4.73393040E-04  5.55324426E-04  3.93415481E-04  3.57683690E-04  4.08185122E-04  3.21771455E-04  2.65387760E-04  2.70997349E-04  3.27093527E-04  2.92240089E-04  2.62524787E-04  2.40934998E-04  1.79461815E-04  1.19713128E-04  9.02700340E-05  5.79945081E-05  3.11598415E-05  1.28569272E-05  8.35399442E-06  9.86258419E-06  8.33685408E-06  9.77532545E-06  6.16404077E-06  1.93584383E-05  2.42826773E-05  7.90223453E-07  6.10766376E-05  6.10766376E-05  6.10766376E-05  6.10766376E-05  6.10766376E-05  6.10766376E-05  6.10766376E-05  4.28609666E-04  3.57412675E-04  2.71913945E-04  2.18609290E-04  2.25489493E-04  2.13173829E-04  1.09226006E-04  1.03707753E-04  3.54892145E-05  2.48936904E-05  2.06454406E-05  1.95263583E-05  7.36944344E-07  1.03057960E-06  1.25458610E-06  1.51299741E-06  1.65089352E-06  1.71917691E-06  1.78717164E-06  1.70094768E-06  1.33509047E-06  1.04454330E-06  1.00668160E-06  9.80802724E-07
      2.00288596E-05  7.39643110E-06  5.59696036E-06  2.39962418E-07  2.96690359E-07  3.53892972E-07  4.16968163E-07  4.33412453E-07  6.10766376E-05  6.10766376E-05  6.10766376E-05  6.10766376E-05  6.10766376E-05  6.10766376E-05  6.10766376E-05  6.10766376E-05  1.26224961E-07  9.84221202E-08  7.84106078E-08  6.74985401E-08  6.48923972E-08  5.10047471E-08  4.47112463E-08  4.67339056E-08  5.91882525E-08  7.94165445E-08  1.30230447E-07  2.34077049E-07  3.81435740E-07  6.16557429E-07  2.07812209E-05  3.58988909E-05  7.19414093E-05  1.05406216E-04  1.11439622E-04  1.18182099E-04  9.79489778E-05  5.68077448E-05  5.95383171E-05  2.71213707E-06  3.18511775E-06  3.23614177E-06  2.77779577E-06  2.66347979E-06  2.84363773E-06  2.45079718E-06  2.34952472E-06  2.40038571E-06  2.22758717E-06  2.10244411E-06  1.52374184E-06  1.24584699E-06  1.20278753E-06  1.31591571E-06  1.69739883E-06  2.10478447E-06  2.65543895E-06  3.51320887E-06  4.97199881E-06  5.27996508E-06  4.35219772E-06  3.41118471E-06  2.69285556E-06  1.53167057E-05  4.08530505E-05  7.03665792E-05  1.44491423E-04  2.20685848E-04  3.84883693E-04  3.10059026E-04  3.24404973E-04  3.69447720E-04  4.39713971E-04  4.96035034E-04  4.87575831E-04  4.64481360E-04  4.35643451E-04  4.29909298E-04  3.77428572E-04  3.40183673E-04  3.05729860E-04  2.90423952E-04  2.89840827E-04  3.16467806E-04  3.09663155E-04  2.71907047E-04  2.14705535E-04  1.78591188E-04  1.82889082E-04  1.49653992E-04  1.64446159E-04  2.16569562E-04  2.32516235E-04  2.69715354E-04  1.70837811E-04  1.42844612E-04  1.16983683E-04  7.51212501E-05  3.53339747E-05  1.66125010E-05  1.09768125E-05  5.86500437E-06  3.47400828E-06  4.28266367E-06  6.02290038E-06  6.74797820E-06  9.09703715E-07  8.88104296E-07  8.46638727E-07  6.10766376E-05  6.10766376E-05  6.10766376E-05  6.10766376E-05  6.10766376E-05  6.10766376E-05  6.10766376E-05  3.35388555E-04  2.86043447E-04  2.27437486E-04  2.43681177E-04  2.35740023E-04  1.98537091E-04  1.21806755E-04  8.07587057E-05  3.08367959E-07  3.75143259E-07  3.94165113E-07  5.05735443E-07  7.22322341E-07  8.18351509E-07  9.93608865E-07  9.77217269E-07  1.11496502E-06  1.16247963E-06  1.33528692E-06  1.19796471E-06  9.22420838E-07  7.66018786E-07  7.07777872E-07  7.34536457E-07
      1.72847595E-05  1.16171823E-05  5.60885792E-06  2.48358083E-06  2.50326337E-07  3.02245923E-07  3.54625371E-07  3.70460782E-07  4.53959615E-07  4.66096282E-07  6.10766376E-05  6.10766376E-05  6.10766376E-05  6.10766376E-05  6.10766376E-05  1.33239013E-07  1.01530624E-07  7.20635569E-08  5.54986634E-08  4.69510262E-08  4.36514469E-08  3.72858224E-08  3.44828415E-08  3.59754608E-08  5.53276038E-08  8.11685155E-08  1.43108494E-07  2.51996426E-07  4.10870683E-07  6.64257016E-07  1.15907505E-06  1.76119720E-05  4.93952903E-05  7.96873137E-05  7.46381193E-05  9.47492008E-05  7.38001181E-05  5.49332362E-05  3.52768729E-05  2.12482132E-06  2.50047356E-06  2.42914689E-06  2.01173839E-06  1.80552331E-06  2.12268492E-06  2.35692028E-06  2.25263125E-06  2.12711666E-06  1.98811540E-06  1.54475265E-06  1.16753336E-06  1.01184071E-06  7.84113581E-07  8.30895488E-07  9.46594980E-07  1.20475170E-06  1.59637807E-06  2.15416708E-06  2.83568897E-06  3.29727527E-06  3.10463702E-06  2.49323216E-06  1.25531978E-05  1.57335180E-05  3.29135146E-05  4.35226830E-05  8.87355127E-05  1.30587912E-04  2.43039307E-04  2.12420637E-04  2.43605697E-04  2.84076435E-04  3.08367540E-04  3.37081205E-04  3.71011731E-04  3.62062186E-04  3.84921586E-04  3.82429600E-04  3.38160869E-04  2.77483836E-04  2.29418903E-04  2.05819655E-04  2.02508745E-04  2.15241947E-04  1.76748523E-04  1.62889002E-04  1.35975162E-04  9.07874200E-05  7.61632837E-05  9.91668130E-05  8.29566416E-05  1.65193327E-04  2.16714339E-04  2.02944808E-04  1.56252165E-04  8.11050559E-05  6.31178918E-05  4.26094775E-05  2.08777001E-05  1.72905966E-05  7.94178959E-06  6.37629637E-06  4.20644665E-06  1.53559563E-06  1.47155663E-06  1.09709993E-06  8.43274506E-07  7.23243375E-07  7.71609223E-07  8.00186285E-07  6.10766376E-05  6.10766376E-05  6.10766376E-05  6.10766376E-05  6.10766376E-05  2.10361541E-04  2.06934608E-04  1.91268831E-04  2.03147996E-04  2.35714382E-04  2.28770034E-04  2.06079450E-04  1.19748765E-04  5.42105590E-05  4.00762133E-07  5.02935222E-07  5.57997566E-07  6.10384404E-07  8.07569165E-07  7.21820697E-07  7.40772805E-07  7.03637056E-07  6.56184625E-07  6.42355246E-07  9.00197051E-07  8.35673518E-07  5.40324947E-07  4.68265256E-07  4.86801298E-07  5.34499804E-07
      1.80937695E-05  1.13169199E-05  7.02563830E-06  3.01566047E-06  3.32534091E-06  2.87261855E-07  3.44284530E-07  4.17961928E-07  4.63904996E-07  4.87394402E-07  3.79943117E-07  6.10766376E-05  6.10766376E-05  1.86540817E-07  1.32155037E-07  1.04736650E-07  8.57599218E-08  6.37489990E-08  4.74972559E-08  3.98437550E-08  3.39551960E-08  2.95357747E-08  2.59854396E-08  6.10766376E-05  6.10766376E-05  6.10766376E-05  6.10766376E-05  6.10766376E-05  6.10766376E-05  8.17315538E-07  1.57582110E-06  2.02657047E-05  4.59046532E-05  4.82595970E-05  4.67802856E-05  6.13351876E-05  6.79112709E-05  3.62459505E-05  1.91635081E-06  1.93755409E-06  1.93737333E-06  1.86722013E-06  1.79371204E-06  1.65944505E-06  1.59006640E-06  1.64446169E-06  1.67233566E-06  1.87783326E-06  1.38914515E-06  9.82797701E-07  7.59091733E-07  7.78439869E-07  6.23261201E-07  5.80212827E-07  6.39485222E-07  8.24696258E-07  1.07283631E-06  1.44419823E-06  1.89388834E-06  2.04287426E-06  1.92646962E-06  1.61414300E-06  1.28252186E-05  1.28946731E-05  2.95006030E-05  3.50280279E-05  4.64460172E-05  9.48704037E-05  1.31069959E-04  1.56191163E-04  2.12894447E-04  2.19366644E-04  2.48531665E-04  2.59880850E-04  2.85895600E-04  3.24369408E-04  3.25459347E-04  3.27693095E-04  2.82765453E-04  2.21900758E-04  1.60763389E-04  1.44080695E-04  1.22951795E-04  1.11735477E-04  1.11930807E-04  1.01074576E-04  1.09828536E-04  7.35640497E-05  5.30052166E-05  5.29802237E-05  7.80991759E-05  9.55189462E-05  1.42340155E-04  1.65808553E-04  1.39287629E-04  6.76977870E-05  5.00662463E-05  1.60625113E-05  1.14030918E-05  4.82655150E-06  7.12378278E-06  1.24472206E-06  1.56642659E-06  1.61460252E-06  1.37491077E-06  6.37565336E-07  6.66255573E-07  5.74433443E-07  3.25322645E-07  4.74798753E-07  1.00581519E-06  6.10766376E-05  6.10766376E-05  1.45966187E-04  1.31505862E-04  1.26802173E-04  1.45466154E-04  1.60618860E-04  1.83052922E-04  2.01496368E-04  1.57507500E-04  1.04454579E-04  5.57637140E-05  6.03122771E-07  6.82721691E-07  8.32364776E-07  8.54970608E-07  8.74047942E-07  9.26329790E-07  7.22238667E-07  6.49049468E-07  6.82482721E-07  6.32273839E-07  5.16565137E-07  5.14509566E-07  5.34956712E-07  9.36001015E-06  3.52672004E-07  1.07892020E-05  3.84680447E-07
      1.63700279E-05  1.59566098E-05  1.12028156E-05  8.00038652E-06  3.14994440E-06  2.54639104E-07  3.98540749E-07  4.59035846E-07  5.19844036E-07  4.96777886E-07  4.35984703E-07  3.55591595E-07  2.73228096E-07  2.05135038E-07  1.45122215E-07  1.18099237E-07  8.71418990E-08  7.26811606E-08  5.34375815E-08  3.99968236E-08  3.42729294E-08  6.10766376E-05  6.10766376E-05  6.10766376E-05  6.10766376E-05  6.10766376E-05  6.10766376E-05  6.10766376E-05  6.10766376E-05  6.10766376E-05  6.10766376E-05  2.50641574E-06  3.27513881E-05  4.03120939E-05  6.10766376E-05  6.10766376E-05  6.10766376E-05  2.09128439E-06  6.10766376E-05  6.10766376E-05  6.10766376E-05  6.10766376E-05  6.10766376E-05  1.49464199E-06  1.16737965E-06  1.01177079E-06  1.19049560E-06  1.09055338E-06  8.23057860E-07  6.07617721E-07  4.79581104E-07  4.48120289E-07  3.67169577E-07  4.00790441E-07  4.53459904E-07  5.60848207E-07  7.73712941E-07  1.05020990E-06  1.11510462E-06  1.36995436E-06  1.17105469E-06  1.11434770E-06  9.67342430E-07  1.24154840E-05  1.36672061E-05  2.85998267E-05  3.54444055E-05  4.74386070E-05  6.88703003E-05  9.03058171E-05  1.25505030E-04  1.57978575E-04  1.48888386E-04  1.74633227E-04  2.01740491E-04  2.34741019E-04  2.40935231E-04  2.31737315E-04  2.00721246E-04  1.76285379E-04  1.34738293E-04  9.95633454E-05  7.23032426E-05  7.03476107E-05  6.62361344E-05  6.46876288E-05  5.41463669E-05  6.38910860E-05  4.43777571E-05  4.22220510E-05  3.60932572E-05  7.56087029E-05  4.44349971E-05  8.89876901E-05  1.03192833E-04  7.47247977E-05  2.60211909E-05  7.14975522E-06  5.40334077E-06  9.87272188E-07  1.16807564E-06  1.57379577E-06  1.69559576E-06  9.00824034E-07  8.11289567E-07  6.16366208E-07  4.93752509E-07  4.41230043E-07  4.12563537E-07  5.86174281E-07  1.18033211E-06  1.00887087E-06  6.20005230E-05  9.82880010E-05  8.45231843E-05  8.59879510E-05  9.50552057E-05  1.06041283E-04  1.19819546E-04  9.71747213E-05  3.97784388E-05  3.54250551E-05  9.51432867E-07  8.74579882E-07  1.20466780E-06  1.40821430E-06  1.33694903E-06  1.27142562E-06  1.25639951E-06  8.92515743E-07  6.10766376E-05  6.10766376E-05  6.10766376E-05  4.52067553E-07  4.47015339E-07  2.10726448E-05  1.20262239E-05  1.29860127E-05  1.18797388E-05  2.76093260E-07
      1.33642534E-05  1.27258227E-05  1.69602663E-05  8.59178363E-06  5.50192271E-06  3.35111508E-06  4.21254839E-07  5.16706052E-07  5.58130182E-07  5.38958830E-07  4.47192974E-07  3.25765711E-07  2.36851037E-07  1.93895303E-07  1.69011912E-07  1.43833702E-07  1.18624236E-07  9.93741125E-08  7.21552453E-08  5.67633975E-08  6.10766376E-05  6.10766376E-05  6.10766376E-05  6.10766376E-05  6.10766376E-05  6.10766376E-05  6.10766376E-05  6.10766376E-05  6.10766376E-05  6.10766376E-05  6.10766376E-05  6.10766376E-05  6.10766376E-05  6.10766376E-05  6.10766376E-05  6.10766376E-05  6.10766376E-05  6.10766376E-05  6.10766376E-05  6.10766376E-05  6.10766376E-05  6.10766376E-05  6.10766376E-05  6.10766376E-05  6.10766376E-05  8.17311957E-07  7.90850947E-07  6.97099267E-07  5.00823830E-07  3.76051673E-07  3.05031449E-07  2.43546623E-07  2.11481208E-07  2.86412899E-07  3.48682534E-07  4.19247158E-07  5.25672078E-07  7.14078737E-07  7.67440213E-07  7.20267053E-07  6.77607886E-07  6.63043181E-07  6.95067001E-07  6.79665561E-07  1.11428590E-05  1.37310590E-05  1.38788955E-05  4.02049627E-05  4.91532446E-05  6.97391079E-05  7.85693846E-05  6.51365990E-05  9.38639059E-05  1.03527469E-04  1.22777783E-04  1.74507921E-04  1.82144620E-04  1.73537774E-04  1.78692804E-04  1.23697610E-04  1.05318075E-04  7.21852048E-05  5.40547117E-05  4.91034734E-05  4.30517284E-05  4.53505018E-05  3.47238711E-05  3.25821056E-05  4.89107952E-05  4.11712026E-05  2.61282676E-05  3.40420629E-05  3.56470300E-05  7.24885977E-05  8.67107738E-05  2.14384308E-05  7.36760626E-07  6.69949577E-06  6.13461168E-07  9.11730240E-07  7.14436169E-07  8.78035848E-07  9.88021384E-07  1.00090051E-06  1.00366708E-06  8.10161680E-07  6.31309149E-07  6.02903469E-07  5.59696048E-07  7.04819286E-07  6.96029929E-07  1.09711493E-06  6.28587804E-05  3.96113173E-05  4.11194305E-05  5.89137017E-05  3.95091447E-05  5.44279574E-05  3.90452842E-05  3.96315627E-05  1.29397995E-06  1.32401908E-06  1.23336667E-06  1.32928926E-06  1.51501706E-06  1.72935461E-06  6.10766376E-05  6.10766376E-05  6.10766376E-05  6.10766376E-05  6.10766376E-05  6.10766376E-05  6.10766376E-05  6.10766376E-05  6.10766376E-05  5.20834874E-07  2.68327003E-05  3.88785193E-05  2.93257108E-05  1.40327220E-05
      1.04652627E-05  1.17323079E-05  1.27610701E-05  1.06654670E-05  6.58822592E-06  5.37119286E-06  4.16783087E-06  5.40838300E-06  5.83682947E-07  5.75661204E-07  4.77710500E-07  3.40225796E-07  2.33120701E-07  2.01465241E-07  1.99432804E-07  1.78970751E-07  1.57871668E-07  1.24232358E-07  1.03841145E-07  9.75242997E-08  6.10766376E-05  6.10766376E-05  6.10766376E-05  6.10766376E-05  6.10766376E-05  6.10766376E-05  6.10766376E-05  6.10766376E-05  6.10766376E-05  6.10766376E-05  6.10766376E-05  6.10766376E-05  6.10766376E-05  6.10766376E-05  6.10766376E-05  6.10766376E-05  6.10766376E-05  6.10766376E-05  6.10766376E-05  6.10766376E-05  6.10766376E-05  6.10766376E-05  6.10766376E-05  6.10766376E-05  6.10766376E-05  7.14939063E-07  6.52686197E-07  5.35324602E-07  4.53989173E-07  2.90302353E-07  2.13602391E-07  1.73564061E-07  1.77642406E-07  2.37444993E-07  2.94606707E-07  3.30842141E-07  4.47562201E-07  6.54726534E-07  6.67248003E-07  6.36526238E-07  6.11663040E-07  5.30108196E-07  5.43225838E-07  6.79410846E-07  1.00798379E-05  1.08745180E-05  1.24309809E-05  2.56560270E-05  2.85203241E-05  1.75498881E-05  2.97742918E-05  3.59437799E-05  4.69002225E-05  5.31994774E-05  6.17357146E-05  9.60739198E-05  1.18386000E-04  1.20820034E-04  8.91961608E-05  9.00844316E-05  5.11562539E-05  2.51590482E-05  1.87125024E-05  1.73481803E-05  1.80767802E-05  1.76496414E-05  3.16262522E-05  2.08328074E-05  2.68112490E-05  3.53977193E-05  2.30338574E-05  2.62948161E-05  3.09181196E-05  5.87379800E-05  4.94247070E-05  1.81398445E-05  5.76903233E-07  4.87517525E-07  4.79360381E-07  6.71481303E-07  6.84828251E-07  8.19175852E-07  1.05640459E-06  1.12759710E-06  1.61978267E-06  1.33445712E-06  9.15469286E-07  1.03635557E-07  7.76954664E-07  7.78338574E-07  8.17998909E-07  1.42972056E-06  2.71945228E-05  2.31274116E-05  1.83055799E-05  2.65865929E-05  2.49734203E-05  2.01560488E-05  2.26258453E-05  1.51387349E-06  1.49529842E-06  1.71981310E-06  1.64998039E-06  1.67074222E-06  6.10766376E-05  6.10766376E-05  6.10766376E-05  6.10766376E-05  6.10766376E-05  6.10766376E-05  6.10766376E-05  6.10766376E-05  6.10766376E-05  6.10766376E-05  6.10766376E-05  5.51884841E-05  7.09329834E-05  8.35511310E-05  3.61142193E-05  1.80210409E-05
      1.03885741E-05  1.03557541E-05  1.21986131E-05  1.14172044E-05  1.15587027E-05  1.32144532E-05  8.43625639E-06  6.71751559E-06  7.00521923E-06  6.77682237E-07  5.67639404E-07  4.00695313E-07  2.71188270E-07  2.07424790E-07  2.03157896E-07  2.05090345E-07  1.88846926E-07  1.52155934E-07  1.36540692E-07  1.17848835E-07  6.10766376E-05  6.10766376E-05  6.10766376E-05  6.10766376E-05  6.10766376E-05  6.10766376E-05  6.10766376E-05  6.10766376E-05  6.10766376E-05  6.10766376E-05  6.10766376E-05  6.10766376E-05  6.10766376E-05  6.10766376E-05  6.10766376E-05  6.10766376E-05  6.10766376E-05  6.10766376E-05  6.10766376E-05  6.10766376E-05  6.10766376E-05  6.10766376E-05  6.10766376E-05  6.10766376E-05  6.10766376E-05  6.10766376E-05  5.33799152E-07  4.33970058E-07  3.50224013E-07  2.83931172E-07  2.34653513E-07  1.76352316E-07  1.86188331E-07  2.37865038E-07  2.69836306E-07  2.94638568E-07  3.96629900E-07  5.69176507E-07  6.11295661E-07  6.33343802E-07  5.88555565E-07  5.25070448E-07  5.67182269E-07  7.22201719E-07  8.16594536E-07  9.33765023E-06  9.85370025E-06  1.18181842E-05  1.31523766E-05  1.18364960E-05  1.85420613E-05  2.06329114E-05  1.62687847E-05  2.68238673E-05  3.71418355E-05  5.62779533E-05  7.24000565E-05  7.68587561E-05  5.87487593E-05  3.70918497E-05  2.77595991E-05  1.62832396E-06  1.84959833E-06  2.13544581E-06  3.04616833E-06  1.54557001E-05  2.51943056E-05  1.31827783E-05  1.50666838E-05  3.16234218E-05  3.94807976E-05  2.30271835E-05  2.69111242E-05  2.60047436E-05  1.95541979E-05  4.04596364E-07  3.50188827E-07  4.03500792E-07  6.94039102E-07  6.57598491E-07  7.18212334E-07  7.79502329E-07  1.08558277E-06  1.39915130E-06  1.80859843E-06  1.96044380E-06  1.19905224E-06  5.21178336E-08  8.38300934E-07  8.16915815E-07  1.31427100E-06  1.82008375E-06  2.14469619E-05  1.73924745E-05  2.15967702E-05  1.97814334E-05  1.65381080E-05  8.69340329E-06  1.81204814E-06  1.85340787E-06  2.04639218E-06  1.92323705E-06  2.48152719E-06  2.44010630E-06  6.10766376E-05  6.10766376E-05  6.10766376E-05  6.10766376E-05  6.10766376E-05  6.10766376E-05  6.10766376E-05  6.10766376E-05  6.10766376E-05  6.10766376E-05  6.10766376E-05  6.46809276E-05  7.97906250E-05  9.66840016E-05  7.38500094E-05  2.98273026E-05
      9.50599224E-06  9.81637913E-06  1.20788854E-05  1.12149255E-05  1.47715828E-05  1.39147496E-05  1.30441749E-05  1.07545548E-05  7.54851817E-06  6.71827229E-06  6.38390975E-06  4.95943993E-07  3.41427096E-07  2.87797491E-07  2.47146261E-07  2.16735856E-07  2.08912439E-07  1.84725252E-07  2.02639342E-07  1.82874899E-07  6.10766376E-05  6.10766376E-05  6.10766376E-05  6.10766376E-05  6.10766376E-05  6.10766376E-05  6.10766376E-05  6.10766376E-05  6.10766376E-05  6.10766376E-05  6.10766376E-05  6.10766376E-05  6.10766376E-05  6.10766376E-05  6.10766376E-05  6.10766376E-05  6.10766376E-05  6.10766376E-05  6.10766376E-05  6.10766376E-05  6.10766376E-05  6.10766376E-05  6.10766376E-05  6.10766376E-05  6.10766376E-05  6.10766376E-05  6.10766376E-05  3.99051032E-07  3.55709915E-07  3.01457135E-07  2.48258658E-07  1.86218983E-07  1.74846832E-07  1.94354456E-07  2.40408127E-07  3.32096619E-07  4.59215499E-07  5.77048922E-07  6.70398549E-07  6.74449723E-07  6.81634731E-07  6.45575994E-07  5.64063157E-07  7.22280049E-07  8.86557700E-06  8.09527501E-06  1.23614145E-05  8.47282354E-06  1.09739249E-05  9.65560594E-06  1.33297508E-05  8.13442784E-06  1.15911944E-05  1.76050326E-05  2.35173356E-05  3.52037787E-05  3.91995090E-05  3.53488176E-05  2.28097488E-05  2.38121811E-05  1.41640858E-05  2.52264272E-06  2.59083299E-06  2.91410493E-06  3.37391157E-06  3.21457401E-06  3.04369109E-06  1.61378157E-05  3.08888484E-05  3.32530399E-05  3.75924064E-05  2.34985873E-05  4.37535491E-05  2.26161501E-05  2.95245030E-07  2.35822284E-07  1.80855968E-05  3.05369923E-07  4.32601382E-07  4.47087814E-07  2.47785863E-07  2.51968203E-07  2.09506766E-07  1.35785456E-07  1.69391603E-06  6.71552343E-08  8.48920010E-08  9.54382671E-08  7.67990059E-07  1.50124686E-06  1.30412332E-06  1.59692843E-06  2.04065668E-06  1.48350609E-05  1.30557719E-05  1.03848442E-05  7.39511006E-06  1.97548388E-06  2.24549672E-06  2.37583367E-06  2.55994041E-06  2.66904317E-06  3.52388315E-06  3.26983172E-06  6.10766376E-05  6.10766376E-05  6.10766376E-05  6.10766376E-05  6.10766376E-05  6.10766376E-05  6.10766376E-05  6.10766376E-05  6.10766376E-05  6.10766376E-05  6.10766376E-05  6.94013215E-05  8.05590389E-05  9.76447409E-05  7.17247385E-05  3.14442295E-05
      1.01076266E-05  1.08128916E-05  1.30786202E-05  1.50186988E-05  1.75830100E-05  1.75255609E-05  1.90781957E-05  1.99119240E-05  1.25218057E-05  1.21027952E-05  6.92217736E-06  6.06437516E-06  5.68891346E-06  4.04413498E-07  3.57720893E-07  2.79082656E-07  2.39645459E-07  2.36658266E-07  2.48319765E-07  2.34990523E-07  6.10766376E-05  6.10766376E-05  6.10766376E-05  6.10766376E-05  6.10766376E-05  6.10766376E-05  6.10766376E-05  6.10766376E-05  6.10766376E-05  6.10766376E-05  6.10766376E-05  6.10766376E-05  6.10766376E-05  6.10766376E-05  6.10766376E-05  6.10766376E-05  6.10766376E-05  6.10766376E-05  6.10766376E-05  6.10766376E-05  6.10766376E-05  6.10766376E-05  6.10766376E-05  6.10766376E-05  6.10766376E-05  6.10766376E-05  6.10766376E-05  6.10766376E-05  6.10766376E-05  2.54446093E-07  2.12031225E-07  1.98755004E-07  1.84560264E-07  1.71746436E-07  2.20232593E-07  3.31522273E-07  4.43886734E-07  6.22418781E-07  7.56979205E-07  8.45752595E-07  8.47623369E-07  8.06440767E-07  7.30762906E-07  1.13642545E-06  1.34468894E-06  7.60444846E-06  1.07294572E-05  8.29999044E-06  4.63230299E-06  9.27841847E-06  9.32911735E-06  8.05424588E-06  8.21607864E-06  1.06341286E-05  1.44792693E-05  2.11083534E-05  2.18647037E-05  2.89253494E-05  1.66236241E-05  2.35417565E-06  1.19640727E-05  3.49300626E-06  3.69683653E-06  3.81609016E-06  3.55349925E-06  3.21297648E-06  2.68189319E-06  1.96287624E-06  1.54318673E-06  2.25132553E-05  2.21688297E-05  2.33356404E-05  2.60123543E-05  2.33180035E-05  2.50301667E-07  2.46626405E-05  2.57190436E-07  2.15610186E-07  2.12501419E-07  3.19803519E-07  1.26317644E-07  9.09617626E-08  5.27183985E-08  1.28043311E-07  6.11132336E-08  9.99260692E-08  9.66149116E-08  8.64991989E-08  7.01233205E-07  1.26491898E-06  1.57665056E-06  2.34549475E-06  2.84036651E-06  2.33755168E-06  1.89316927E-06  1.95501161E-06  1.96005067E-06  1.98766998E-06  2.37880636E-06  2.71256749E-06  3.60750096E-06  4.31249782E-06  4.41356997E-06  4.21780760E-06  6.10766376E-05  6.10766376E-05  6.10766376E-05  6.10766376E-05  6.10766376E-05  6.10766376E-05  6.10766376E-05  6.10766376E-05  6.10766376E-05  6.10766376E-05  6.10766376E-05  5.26453732E-05  6.86368585E-05  9.32849725E-05  6.62816892E-05  4.00990939E-05
      1.26625864E-05  1.34412012E-05  1.60289273E-05  1.93409542E-05  2.40617028E-05  2.65290837E-05  2.93149224E-05  2.48252582E-05  1.86370617E-05  1.41829587E-05  7.31993805E-06  6.33418449E-06  6.99001612E-06  6.35705692E-06  4.99814348E-07  3.90147989E-07  3.33856661E-07  3.12022934E-07  2.86356226E-07  6.10766376E-05  6.10766376E-05  6.10766376E-05  6.10766376E-05  6.10766376E-05  6.10766376E-05  6.10766376E-05  6.10766376E-05  6.10766376E-05  6.10766376E-05  6.10766376E-05  6.10766376E-05  6.10766376E-05  6.10766376E-05  6.10766376E-05  6.10766376E-05  6.10766376E-05  6.10766376E-05  6.10766376E-05  6.10766376E-05  6.10766376E-05  6.10766376E-05  6.10766376E-05  6.10766376E-05  6.10766376E-05  6.10766376E-05  6.10766376E-05  6.10766376E-05  6.10766376E-05  6.10766376E-05  6.10766376E-05  1.93606979E-07  1.74894026E-07  1.90433667E-07  1.75675240E-07  2.08227775E-07  3.25870133E-07  4.68028531E-07  6.53753432E-07  8.05497052E-07  9.25455936E-07  1.01492947E-06  9.87410090E-07  1.08282677E-06  1.29473756E-06  1.65826032E-06  7.22711457E-06  1.14457534E-05  8.88139402E-06  1.00855195E-05  1.04903202E-05  1.03406646E-05  8.68968436E-06  7.36324546E-06  8.90319461E-06  1.31825600E-05  1.96969268E-05  1.48051940E-05  1.13540054E-05  2.50208245E-06  2.99175122E-06  3.56256805E-06  1.13103833E-05  4.69374436E-06  4.07355856E-06  3.35083041E-06  2.81253665E-06  2.03149057E-06  1.33610843E-06  1.01750015E-06  7.65092295E-07  5.71896976E-07  5.15104318E-07  4.49603249E-07  3.66553024E-07  3.05634074E-07  2.47870474E-07  2.12207894E-07  1.65335791E-07  1.03694980E-07  1.45018209E-09  3.10379389E-09  2.31574515E-09  1.85261001E-07  8.48524024E-08  8.79225013E-08  4.50712889E-08  9.22643792E-08  1.26613529E-07  6.07791037E-07  1.08359359E-06  1.67341375E-06  2.53054759E-06  2.64653363E-06  2.17568754E-06  1.99101737E-06  2.03594664E-06  1.97835698E-06  2.14389638E-06  2.37357426E-06  2.98112286E-06  4.27665418E-06  5.37738924E-06  5.53562904E-06  5.71856390E-06  5.23229028E-06  6.10766376E-05  6.10766376E-05  6.10766376E-05  6.10766376E-05  6.10766376E-05  6.10766376E-05  6.10766376E-05  6.10766376E-05  6.10766376E-05  6.10766376E-05  4.03586419E-05  5.72755234E-05  7.52193737E-05  6.10038696E-05  4.01467405E-05
      1.88019039E-05  1.81966952E-05  2.16107637E-05  2.67623273E-05  3.14666577E-05  3.37495549E-05  3.74894662E-05  3.68467336E-05  1.87963760E-05  1.79272301E-05  1.26446157E-05  7.24375150E-06  7.39844472E-06  6.76431227E-06  6.88236298E-07  5.36174468E-07  4.07929633E-07  3.22260718E-07  2.89778143E-07  6.10766376E-05  6.10766376E-05  6.10766376E-05  6.10766376E-05  6.10766376E-05  6.10766376E-05  6.10766376E-05  6.10766376E-05  6.10766376E-05  6.10766376E-05  6.10766376E-05  6.10766376E-05  6.10766376E-05  6.10766376E-05  6.10766376E-05  6.10766376E-05  6.10766376E-05  6.10766376E-05  6.10766376E-05  6.10766376E-05  6.10766376E-05  6.10766376E-05  6.10766376E-05  6.10766376E-05  6.10766376E-05  6.10766376E-05  6.10766376E-05  6.10766376E-05  6.10766376E-05  6.10766376E-05  6.10766376E-05  6.10766376E-05  2.11527563E-07  1.89136344E-07  1.75673151E-07  2.16375312E-07  3.63434339E-07  5.04433444E-07  6.89144827E-07  9.04240210E-07  1.08690176E-06  1.24657561E-06  1.18357661E-06  1.27644580E-06  1.57571992E-06  1.97733470E-06  2.97239126E-06  9.05959405E-06  9.94736820E-06  1.22737183E-05  1.23209866E-05  1.36230110E-05  1.00679936E-05  7.61596311E-06  7.99201371E-06  1.05055733E-05  9.42864790E-06  1.60336258E-05  1.19556726E-05  3.37933761E-06  4.24901873E-06  4.69001316E-06  1.56638962E-05  4.52274526E-06  3.98596376E-06  3.52287293E-06  2.50803191E-06  1.78354685E-06  1.09106509E-06  7.65882646E-07  5.73405316E-07  4.74748788E-07  4.49792822E-07  3.69934497E-07  3.05651554E-07  2.48067323E-07  2.22987268E-07  2.47620989E-07  1.71745683E-07  7.60790044E-08  2.13002638E-09  4.67796957E-09  4.57180738E-09  3.83048082E-08  9.65822338E-08  1.03305780E-07  1.13675810E-07  7.21770732E-08  8.52116031E-08  5.38436780E-07  1.76243111E-06  2.02445085E-06  2.05128026E-06  2.24622931E-06  1.83636382E-06  1.83288421E-06  1.66990947E-06  1.75598200E-06  1.99993201E-06  2.78991956E-06  3.26303916E-06  4.21493360E-06  5.77798573E-06  6.70740246E-06  6.57960618E-06  5.15545389E-06  5.58932379E-06  6.10766376E-05  6.10766376E-05  6.10766376E-05  6.10766376E-05  6.10766376E-05  6.10766376E-05  6.10766376E-05  6.10766376E-05  6.10766376E-05  3.53009746E-05  5.06757897E-05  5.05875905E-05  6.27118498E-05  3.80605998E-05