# File generated by Flopy version 3.9.2 on 06/10/2025 at 16:30:17.
BEGIN options
  SAVE_FLOWS
  SAVE_SPECIFIC_DISCHARGE
  SAVE_SATURATION
END options

BEGIN griddata
  icelltype
    CONSTANT  0
  k  LAYERED
    INTERNAL  FACTOR  1.0
      3.36388403E-05  5.86041381E-07  5.89163392E-07  6.43693170E-07  6.56282054E-07  4.59473269E-05  4.59473269E-05  4.59473269E-05  4.59473269E-05  4.59473269E-05  4.59473269E-05  4.59473269E-05  4.59473269E-05  4.59473269E-05  4.59473269E-05  4.59473269E-05  3.88706269E-07  3.51534595E-07  3.58014006E-07  3.19560002E-07  3.32929403E-07  3.06571820E-07  1.27446037E-05  1.21327230E-05  2.20355923E-05  1.80803509E-05  1.72110012E-05  1.65986366E-05  1.66263417E-05  2.05830183E-05  2.52963982E-05  2.67108589E-05  3.32640848E-05  4.56626622E-05  6.35650140E-05  7.60182666E-05  8.57597406E-05  9.48036832E-05  1.36059578E-04  1.56174996E-04  1.47089828E-04  1.50844047E-04  1.63879100E-04  1.73247725E-04  1.70087340E-04  1.83212687E-04  1.60673968E-04  1.44419901E-04  1.35611161E-04  1.41816636E-04  1.12833426E-04  4.59473269E-05  4.59473269E-05  4.59473269E-05  4.59473269E-05  4.59473269E-05  3.52327106E-07  5.37124947E-07  1.70196308E-05  1.05669437E-06  1.48260494E-06  2.47580306E-06  3.15997318E-06  6.39296341E-05  5.60199696E-05  7.80546907E-05  7.01703975E-05  3.04281330E-05  2.11971383E-05  2.24769838E-06  1.84798068E-06  1.33390165E-06  1.07733956E-06  8.94558070E-07  9.91933803E-07  1.21065284E-06  1.22905874E-06  1.16903584E-06  1.31386980E-06  1.73943431E-06  2.23698248E-06  2.59101353E-06  2.96473331E-06  3.55573275E-06  3.73728108E-06  2.19206163E-06  1.82377937E-06  1.61459297E-06  1.44524097E-06  1.21982237E-06  8.51202344E-07  7.89672697E-07  9.88305828E-07  9.88197485E-07  1.15597572E-06  1.11912686E-06  1.53061569E-06  1.68928102E-06  2.22985182E-06  2.38728740E-06  2.35714333E-06  2.30160094E-06  2.43561590E-06  2.75192201E-06  2.89396735E-06  2.89536115E-06  2.50741186E-06  1.87037540E-06  4.59473269E-05  4.59473269E-05  4.59473269E-05  4.59473269E-05  4.59473269E-05  4.59473269E-05  4.59473269E-05  4.59473269E-05  4.09462444E-07  5.30939701E-07  7.09453161E-07  1.39881413E-05  1.38499117E-05  2.14307893E-05  1.31275019E-05  1.41298153E-06  1.52850635E-06  1.37438201E-06  1.29249349E-06  1.36602387E-06  1.47082562E-06  1.49348170E-06  1.47365563E-06  1.84410726E-06  2.45956699E-06  2.46538798E-06  2.30348428E-06  2.00921409E-06  1.72772047E-06  1.48371282E-06  1.14456304E-06  9.46296041E-07
      6.76915079E-05  3.90313835E-05  8.82772099E-07  8.42466534E-07  8.02571606E-07  5.66364577E-07  4.59473269E-05  4.59473269E-05  4.59473269E-05  4.59473269E-05  4.59473269E-05  4.59473269E-05  4.59473269E-05  4.59473269E-05  4.59473269E-05  4.59473269E-05  4.00934653E-07  3.80495834E-07  3.78140669E-07  3.38993061E-07  3.37111942E-07  3.23673675E-07  2.95642820E-07  1.69811428E-05  1.58795901E-05  2.05802171E-05  1.85572753E-05  1.87129426E-05  2.10599574E-05  2.47654025E-05  2.87170515E-05  3.98957454E-05  3.99663186E-05  6.26740002E-05  7.06243154E-05  8.98768703E-05  1.01622565E-04  1.18092481E-04  1.48358726E-04  1.51545290E-04  1.36510673E-04  1.33113266E-04  1.48248437E-04  1.54086214E-04  1.70803265E-04  1.79053939E-04  1.58116381E-04  1.45054350E-04  1.42959994E-04  7.27084989E-05  8.73095928E-07  8.09812207E-07  6.65146729E-07  4.89008357E-07  3.57165732E-07  3.43433300E-07  3.82466965E-07  5.11571272E-07  1.83113898E-05  1.01161277E-06  1.26507473E-06  1.68843428E-06  2.35511152E-06  2.86481372E-06  5.78277031E-05  5.79991793E-05  7.62225463E-05  4.81844727E-05  1.87921287E-05  1.33455305E-05  8.83177472E-06  1.31283582E-06  1.04401056E-06  9.38857738E-07  8.97121822E-07  1.04038520E-06  1.01951889E-06  1.01156991E-06  1.23463383E-06  1.52384200E-06  1.89263380E-06  2.01697435E-06  2.49133541E-06  2.92535128E-06  2.83195845E-06  2.15696696E-06  1.20473612E-06  1.12580358E-06  1.05933088E-06  8.95168967E-07  7.79941104E-07  1.14021873E-06  1.29928605E-06  1.23876805E-06  1.48795584E-06  1.55981149E-06  1.58038631E-06  1.84524322E-06  2.03790114E-06  2.94803885E-05  3.62026294E-05  3.03460947E-05  3.02967283E-06  3.71713691E-06  3.78285404E-06  3.43988086E-06  2.85126953E-06  2.00484351E-06  1.71920715E-06  4.59473269E-05  4.59473269E-05  4.59473269E-05  4.59473269E-05  4.59473269E-05  4.59473269E-05  4.59473269E-05  3.32141184E-07  2.39932779E-05  2.72470297E-05  3.65369124E-05  4.09633321E-05  4.60868578E-05  2.35229727E-05  1.78076007E-05  1.28051681E-06  1.12325142E-06  1.17909201E-06  1.21286928E-06  1.32874493E-06  1.37514303E-06  1.22553342E-06  1.62763638E-06  2.25574286E-06  2.40218083E-06  2.27455985E-06  2.09036398E-06  1.97036252E-06  1.74574802E-06  1.26706720E-06  9.52035634E-07
      6.52289382E-05  3.94970884E-05  1.18832395E-06  1.04071603E-06  8.21019796E-07  6.96059544E-07  4.89406887E-07  3.78979450E-07  4.59473269E-05  4.59473269E-05  4.59473269E-05  4.59473269E-05  4.59473269E-05  4.59473269E-05  4.59473269E-05  4.59473269E-05  4.12184647E-07  4.22149412E-07  4.04971274E-07  3.84609621E-07  3.46815398E-07  3.31235412E-07  1.04791825E-05  1.12479111E-05  1.55042817E-05  2.55789073E-05  2.38896027E-05  2.29074285E-05  2.51637648E-05  2.84384732E-05  3.12208686E-05  4.24868413E-05  5.80551568E-05  6.20233986E-05  8.30842546E-05  1.00536301E-04  1.37698051E-04  1.60230833E-04  1.55657399E-04  1.45418278E-04  1.28170694E-04  1.35024893E-04  1.28461965E-04  1.45972415E-04  1.84879784E-04  1.74937712E-04  1.41942219E-04  1.34010756E-04  6.53964526E-05  5.97912222E-05  5.12758998E-05  3.80530000E-05  2.41989619E-05  1.77304628E-05  3.71097883E-07  3.12363966E-07  1.12179159E-05  1.57178547E-05  2.07746980E-05  3.65360356E-05  2.35643838E-05  2.72745328E-05  2.05679316E-06  5.05655262E-05  2.55857594E-06  1.10047928E-04  7.12891197E-05  4.59395669E-05  2.62802587E-05  1.11863947E-05  7.11730809E-06  1.40675320E-06  1.22524045E-06  1.16366209E-06  1.03206639E-06  9.90103104E-07  9.39966640E-07  1.18992705E-06  1.02075262E-06  1.16108743E-06  1.29376326E-06  1.51026507E-06  1.92487892E-06  1.97241593E-06  1.88999388E-06  1.73132480E-06  9.36320760E-07  1.17142667E-06  1.10339715E-06  1.07691619E-06  9.98830615E-07  1.10669134E-06  1.65223150E-06  1.79243330E-06  2.02044725E-06  2.23221400E-06  1.96274664E-06  2.10496432E-06  3.17025369E-05  2.88851752E-05  5.36548650E-05  6.58331264E-05  5.81371933E-05  2.74692975E-05  3.81684367E-06  4.04729053E-06  3.60221816E-06  2.92709638E-06  2.38619032E-06  4.59473269E-05  4.59473269E-05  4.59473269E-05  4.59473269E-05  4.59473269E-05  4.59473269E-05  4.59473269E-05  3.49007877E-07  3.27961025E-05  6.62628954E-05  6.92807953E-05  7.77730311E-05  5.80933665E-05  2.59102690E-05  3.95118004E-05  9.21563696E-07  9.48255547E-07  1.00897262E-06  9.94919560E-07  1.18134938E-06  1.22846905E-06  1.39574081E-06  1.73062381E-06  2.30380806E-06  2.50559287E-06  2.50511698E-06  2.21586311E-06  2.00495424E-06  1.61702110E-06  1.39164592E-06  1.08611630E-06
      3.80225611E-05  3.82891958E-05  1.60091656E-06  1.48948948E-06  1.09805831E-06  8.85109500E-07  5.67640086E-07  4.92179424E-07  4.53913771E-07  4.17364816E-07  4.59473269E-05  4.59473269E-05  4.59473269E-05  4.59473269E-05  4.59473269E-05  4.47426345E-07  4.28548503E-07  4.56913710E-07  4.26151416E-07  4.25568317E-07  4.38501729E-07  3.79417287E-07  3.76550076E-07  2.19097219E-05  4.52276083E-07  3.79691228E-05  3.60261802E-05  3.35378427E-05  2.99603744E-05  3.23338027E-05  3.70241905E-05  4.71721905E-05  6.12905496E-05  8.30758217E-05  1.21867939E-04  1.48004649E-04  1.57789735E-04  1.71450214E-04  1.73915250E-04  1.55541449E-04  1.51909582E-04  1.36475355E-04  1.37288313E-04  1.57700677E-04  1.87195299E-04  1.61106436E-04  1.42574703E-04  7.33159395E-05  1.56595820E-06  1.30119645E-06  1.05450658E-06  2.62031390E-05  1.59415231E-05  1.78001628E-05  1.51363065E-05  1.36666558E-05  1.44105170E-05  1.93991564E-05  2.80724744E-05  3.58932884E-05  2.26749562E-05  3.16650221E-05  5.26403601E-05  1.76659944E-06  6.14033197E-05  5.06589968E-05  3.54609001E-05  3.85991989E-05  1.46662060E-05  9.88745705E-06  1.17826596E-06  1.18443995E-06  1.30669378E-06  1.45117326E-06  1.29186333E-06  1.31774459E-06  1.35723144E-06  1.15715648E-06  1.24984422E-06  9.05195407E-07  8.85174643E-07  1.00910643E-06  1.33193441E-06  1.30472836E-06  1.37172162E-06  1.32712398E-06  1.01458932E-06  1.01850014E-06  9.56869144E-07  1.02373201E-06  9.23261155E-07  1.68290478E-06  2.05898391E-06  2.14409465E-06  7.02810285E-05  5.51376579E-05  5.15331049E-05  4.40444528E-05  3.77481010E-05  5.71853125E-05  8.41264628E-05  9.47169392E-05  7.58749666E-05  7.27959268E-05  4.23706733E-05  4.27470013E-06  4.35450647E-06  3.77733363E-06  2.91437368E-06  2.98620807E-06  4.59473269E-05  4.59473269E-05  4.59473269E-05  4.59473269E-05  4.59473269E-05  4.13672609E-07  3.43167926E-07  3.69681147E-05  7.68445534E-05  7.02430334E-05  7.29611129E-05  5.89991432E-05  6.50006041E-05  2.82840429E-05  2.79737287E-05  2.58989603E-05  2.58906530E-05  3.02397148E-05  1.45879903E-06  1.75123205E-06  1.87041087E-06  2.06570212E-06  2.58257683E-06  2.67324731E-06  2.60026218E-06  2.71682416E-06  2.13095154E-06  1.93279993E-06  1.63812820E-06  1.22885308E-06
      3.85804560E-05  4.39148644E-05  1.36296558E-06  1.60980562E-06  1.47383344E-06  1.17477748E-06  7.20006540E-07  5.79305436E-07  5.07461323E-07  4.70884089E-07  3.95409273E-07  4.59473269E-05  4.59473269E-05  4.80748213E-07  5.39031475E-07  4.94626420E-07  4.63988556E-07  4.63839399E-07  4.46056987E-07  5.14923556E-07  6.14067119E-07  5.54113171E-07  5.49118397E-07  4.59473269E-05  4.59473269E-05  4.59473269E-05  4.59473269E-05  4.59473269E-05  4.59473269E-05  3.70116031E-05  4.04711718E-05  4.89707745E-05  7.42682823E-05  1.04323924E-04  1.38070289E-04  1.76285510E-04  1.84348930E-04  1.74760105E-04  1.55303220E-04  1.60669370E-04  1.46614781E-04  1.40849763E-04  1.32309971E-04  1.38026691E-04  1.56674330E-04  7.64195793E-05  6.69398287E-05  2.05897595E-06  1.89529237E-06  1.29622390E-06  9.35403477E-07  2.25840922E-05  1.50780606E-05  2.04548269E-05  1.52984085E-05  1.80664847E-05  1.71149768E-05  3.10756986E-05  3.69335794E-05  4.48057399E-05  3.91270078E-05  3.79848607E-05  5.47142918E-05  1.12347239E-04  8.84874971E-05  4.06959152E-05  3.70014859E-05  2.22507169E-05  1.49565312E-05  9.77960917E-06  1.05544223E-06  1.14610975E-06  1.42449460E-06  1.66285963E-06  1.90156970E-06  1.84404018E-06  1.64365849E-06  1.51784002E-06  1.20613720E-06  8.90357740E-07  8.33716967E-07  8.33108516E-07  9.51484878E-07  1.15817375E-06  1.22271365E-06  1.01424689E-06  9.07284175E-07  8.06756020E-07  6.87562135E-07  7.62051911E-07  1.17820753E-06  1.57754005E-06  9.89798937E-05  8.22740039E-05  1.19495955E-04  1.07184496E-04  1.03984086E-04  8.20104397E-05  8.11798454E-05  1.11671943E-04  1.46714345E-04  1.58266994E-04  1.50777370E-04  9.56466101E-05  9.04100234E-05  4.56620874E-05  5.39603116E-06  4.71955627E-06  4.84673046E-06  4.24026621E-06  4.07977086E-06  4.59473269E-05  4.59473269E-05  8.63382013E-07  5.74578451E-07  4.68816097E-07  3.31803335E-07  5.78559375E-05  5.28073761E-05  6.93476541E-05  7.32750268E-05  5.66272611E-05  6.53064417E-05  5.43881506E-05  5.11547696E-05  2.47934022E-05  9.63593038E-07  1.27863711E-06  1.97131385E-06  2.46843524E-06  2.91724859E-06  3.14296972E-06  3.54287636E-06  3.48484218E-06  3.26915142E-06  3.42567409E-06  2.49370828E-06  2.08915731E-06  1.83923930E-06  1.34183756E-06
      9.00393559E-07  8.18871683E-07  9.41595658E-07  1.01017008E-06  1.29547095E-06  9.70866381E-07  8.20119681E-07  5.85682585E-07  4.63071274E-07  4.26663149E-07  3.80447489E-07  3.45091905E-07  4.24853454E-07  5.39437622E-07  5.30724151E-07  4.79614926E-07  4.77159062E-07  4.26998554E-07  4.39750409E-07  5.61118327E-07  8.43892565E-07  4.59473269E-05  4.59473269E-05  4.59473269E-05  4.59473269E-05  4.59473269E-05  4.59473269E-05  4.59473269E-05  4.59473269E-05  4.59473269E-05  4.59473269E-05  6.26968904E-05  8.65744732E-05  1.11670779E-04  4.59473269E-05  4.59473269E-05  4.59473269E-05  1.55071742E-04  4.59473269E-05  4.59473269E-05  4.59473269E-05  4.59473269E-05  4.59473269E-05  1.83475845E-06  2.10861822E-06  2.24378505E-06  2.15650152E-06  2.13619273E-06  1.83251564E-06  1.45425315E-06  9.62383524E-07  6.88634145E-07  4.74861139E-07  1.47042565E-05  1.72295022E-05  2.37038566E-05  2.61741625E-05  3.47983441E-05  4.60447227E-05  4.80825765E-05  3.79936537E-05  5.85414746E-05  7.66116791E-05  7.88044854E-05  6.89235967E-05  6.28212510E-05  6.18854974E-05  4.10823304E-05  1.58478870E-05  9.92283640E-06  5.44393424E-06  1.20759034E-06  1.59083959E-06  1.62200411E-06  1.99349688E-06  2.04941375E-06  1.90426351E-06  1.62342394E-06  1.44212584E-06  1.29580394E-06  1.02907347E-06  1.00892044E-06  9.89394380E-07  1.00837849E-06  1.09215239E-06  8.33815818E-07  7.57889495E-07  6.27392524E-07  7.38679432E-07  7.34167372E-07  1.00313616E-06  6.81550082E-05  8.95858684E-05  1.77422044E-04  1.40692588E-04  1.23382633E-04  1.08959604E-04  9.17686993E-05  1.45821192E-04  1.56352078E-04  1.66233542E-04  1.83848344E-04  1.93086235E-04  1.69756677E-04  1.08109831E-04  6.09787712E-05  4.90181583E-06  5.17660374E-06  5.85323369E-06  5.60810804E-06  5.24994448E-06  3.62997707E-06  2.02096157E-06  9.65479217E-07  6.20620085E-07  4.65908101E-07  2.87482180E-05  6.02354121E-05  5.70614466E-05  7.68206301E-05  9.51586917E-05  6.63163737E-05  6.00632375E-05  4.10997600E-05  3.42712847E-05  8.56271470E-07  1.00478314E-06  1.42664510E-06  2.48101287E-06  3.51444669E-06  4.59473269E-05  4.59473269E-05  4.59473269E-05  4.56559383E-06  4.61161108E-06  4.40469967E-06  2.96575968E-06  2.10073836E-06  1.80408210E-06  1.44241778E-06
      5.34116282E-07  4.55509564E-07  5.16804789E-07  6.14628505E-07  8.42844827E-07  7.62625291E-07  5.45975240E-07  3.91945150E-07  3.59929317E-07  3.23673987E-07  4.10293211E-07  4.09372205E-07  4.82044811E-07  5.23872245E-07  5.06708602E-07  4.20380189E-07  3.85525027E-07  4.36618024E-07  4.79530854E-07  6.19182401E-07  4.59473269E-05  4.59473269E-05  4.59473269E-05  4.59473269E-05  4.59473269E-05  4.59473269E-05  4.59473269E-05  4.59473269E-05  4.59473269E-05  4.59473269E-05  4.59473269E-05  4.59473269E-05  4.59473269E-05  4.59473269E-05  4.59473269E-05  4.59473269E-05  4.59473269E-05  4.59473269E-05  4.59473269E-05  4.59473269E-05  4.59473269E-05  4.59473269E-05  4.59473269E-05  4.59473269E-05  4.59473269E-05  2.53287112E-06  2.49642676E-06  2.38445136E-06  1.82234635E-06  1.46545142E-06  1.09352311E-06  7.78314018E-07  5.34883327E-07  1.79604103E-05  1.54145255E-05  2.41522575E-05  3.25711153E-05  4.26059487E-05  5.36944281E-05  6.51125083E-05  6.61619779E-05  7.59373579E-05  9.83135469E-05  1.09826215E-04  6.95972849E-05  4.89369522E-05  5.32221457E-05  2.59175340E-05  1.77483853E-05  1.11066620E-05  1.08334712E-06  1.46481545E-06  1.51799998E-06  1.48188553E-06  1.55282532E-06  1.60314858E-06  1.79165545E-06  1.66526377E-06  1.28644842E-06  1.17815921E-06  1.24367273E-06  1.44532430E-06  1.22747917E-06  1.27597184E-06  1.15133662E-06  1.01846160E-06  7.74369539E-07  5.90322088E-07  5.43925751E-07  5.36273774E-07  3.67332068E-05  5.06876349E-05  1.30297485E-04  2.02905881E-04  1.74475732E-04  1.46744220E-04  1.45037717E-04  1.35221548E-04  1.92287422E-04  2.22595569E-04  2.43699033E-04  2.77277373E-04  2.10309983E-04  1.38225209E-04  1.43493089E-04  7.52577107E-05  4.41103612E-06  5.33681532E-06  6.16618991E-06  6.69330757E-06  5.15206693E-06  3.22608025E-06  1.89129639E-06  9.51636594E-07  6.14937562E-07  4.49593102E-07  3.95599187E-07  4.81389070E-05  6.99839875E-05  8.26131072E-05  8.44804963E-05  4.77014983E-05  4.01848629E-05  3.60030936E-05  7.03753699E-07  9.57068892E-07  4.59473269E-05  4.59473269E-05  4.59473269E-05  4.59473269E-05  4.59473269E-05  4.59473269E-05  4.59473269E-05  4.59473269E-05  4.59473269E-05  5.17070885E-06  3.72058048E-06  1.59922274E-06  1.26941200E-06  1.40325005E-06
      3.25123267E-07  2.52743718E-07  3.32621568E-07  5.22905623E-07  6.20183243E-07  4.41243657E-07  4.24297554E-07  3.15376013E-07  2.81714449E-07  2.48921424E-07  2.86068428E-07  3.48329479E-07  5.48876756E-07  5.23170741E-07  4.52540462E-07  3.32103127E-07  4.00113237E-07  4.42511549E-07  5.67179541E-07  7.66612402E-07  4.59473269E-05  4.59473269E-05  4.59473269E-05  4.59473269E-05  4.59473269E-05  4.59473269E-05  4.59473269E-05  4.59473269E-05  4.59473269E-05  4.59473269E-05  4.59473269E-05  4.59473269E-05  4.59473269E-05  4.59473269E-05  4.59473269E-05  4.59473269E-05  4.59473269E-05  4.59473269E-05  4.59473269E-05  4.59473269E-05  4.59473269E-05  4.59473269E-05  4.59473269E-05  4.59473269E-05  4.59473269E-05  2.97465976E-06  2.98666396E-06  2.86497539E-06  2.28927001E-06  1.89347986E-06  1.44509613E-06  9.35772107E-07  6.00183739E-07  9.47455828E-06  1.76275298E-05  1.96991805E-05  2.82176334E-05  3.31528609E-05  5.38163877E-05  5.18345914E-05  6.16926991E-05  7.76250308E-05  9.53847630E-05  9.55318756E-05  6.84713450E-05  5.89453375E-05  2.72245034E-05  5.06869583E-05  3.17426529E-05  1.32115856E-05  1.13034785E-05  1.18870776E-06  1.33597212E-06  1.33386436E-06  1.32323373E-06  1.44752687E-06  1.53186352E-06  1.58599198E-06  1.24408416E-06  1.19861488E-06  1.14955606E-06  1.43582440E-06  1.23588984E-06  1.12346834E-06  9.76279239E-07  8.68009010E-07  6.52860820E-07  6.50908703E-07  5.27109592E-07  1.95074354E-05  6.01728134E-05  7.20638200E-05  1.47577870E-04  1.50738488E-04  1.91530402E-04  1.47478393E-04  1.48021092E-04  1.95407658E-04  2.18497516E-04  2.59105116E-04  2.92838813E-04  2.76370905E-04  2.19177717E-04  2.15952517E-04  1.05513493E-04  2.93405674E-06  4.06432309E-06  5.44560089E-06  5.37049709E-06  5.38533095E-06  4.35459197E-06  2.41735029E-06  1.50562664E-06  8.30506906E-07  5.61814034E-07  4.83422582E-07  2.70409801E-05  5.76508646E-05  6.98374206E-05  5.63073736E-05  4.45322366E-05  4.10285284E-05  3.61450875E-05  6.61793649E-07  4.59473269E-05  4.59473269E-05  4.59473269E-05  4.59473269E-05  4.59473269E-05  4.59473269E-05  4.59473269E-05  4.59473269E-05  4.59473269E-05  4.59473269E-05  4.59473269E-05  6.16192938E-06  2.26959514E-06  2.03151990E-06  1.02513513E-06  1.15829778E-06
      3.21341389E-07  3.14347375E-07  3.08827424E-07  3.45734406E-07  3.94016553E-07  5.40535950E-07  4.70698268E-07  3.39461025E-07  2.01681431E-07  1.74913083E-07  1.77082740E-07  1.58158585E-07  3.56998157E-07  3.08522203E-07  3.62452056E-07  3.56172677E-07  3.54813523E-07  5.32062550E-05  6.84888391E-07  8.02210423E-07  4.59473269E-05  4.59473269E-05  4.59473269E-05  4.59473269E-05  4.59473269E-05  4.59473269E-05  4.59473269E-05  4.59473269E-05  4.59473269E-05  4.59473269E-05  4.59473269E-05  4.59473269E-05  4.59473269E-05  4.59473269E-05  4.59473269E-05  4.59473269E-05  4.59473269E-05  4.59473269E-05  4.59473269E-05  4.59473269E-05  4.59473269E-05  4.59473269E-05  4.59473269E-05  4.59473269E-05  4.59473269E-05  4.59473269E-05  3.46607021E-06  3.51895255E-06  2.88610727E-06  2.31256172E-06  1.60817535E-06  1.07559288E-06  7.00553130E-07  4.59052870E-07  3.12554903E-07  1.16303090E-05  2.21904011E-05  2.50966114E-05  2.90820390E-05  3.24464017E-05  4.83405856E-05  4.69952683E-05  6.90811357E-05  7.18683368E-05  6.51101946E-05  6.06975409E-05  5.00074748E-05  2.72740035E-05  4.04218918E-05  3.19293322E-05  1.49505922E-05  1.07359892E-06  1.32515095E-06  1.50330368E-06  1.27561873E-06  1.45704894E-06  1.50867083E-06  1.39478891E-06  1.29841840E-06  1.22081860E-06  1.24689279E-06  1.17524712E-06  1.01214425E-06  9.20442062E-07  7.55159135E-07  6.02264379E-07  6.21355525E-07  5.74018713E-07  5.65672849E-07  2.00639079E-05  5.67600327E-05  8.97804857E-05  1.06313324E-04  1.39161653E-04  1.68134618E-04  1.40653487E-04  1.49826228E-04  1.74365618E-04  1.90789637E-04  2.38344684E-04  2.77287763E-04  2.86787807E-04  1.94102715E-04  1.42733290E-04  8.13211664E-05  2.11110569E-06  2.99567500E-06  4.19746630E-06  4.30110867E-06  4.04072262E-06  2.98077680E-06  1.99206193E-06  1.17176432E-06  6.72199235E-07  5.13967620E-07  4.43742863E-07  2.18555251E-05  3.89867710E-05  5.20750764E-05  3.65075575E-05  4.34287067E-05  2.62855447E-05  2.90520948E-05  8.60386024E-07  4.59473269E-05  4.59473269E-05  4.59473269E-05  4.59473269E-05  4.59473269E-05  4.59473269E-05  4.59473269E-05  4.59473269E-05  4.59473269E-05  4.59473269E-05  4.59473269E-05  6.07006859E-06  2.30314663E-06  1.04730179E-06  5.26056112E-07  6.34134437E-07
      1.51200410E-07  1.21168867E-07  5.60125386E-08  7.43550146E-08  3.94124299E-07  4.78905179E-07  3.30307557E-07  2.36197948E-07  2.45847929E-07  9.31929307E-08  1.03481014E-07  1.63827480E-07  1.66363350E-07  2.25295395E-07  2.23740628E-07  3.24537183E-07  3.97918427E-07  7.50888503E-05  8.35664614E-05  7.98913334E-07  4.59473269E-05  4.59473269E-05  4.59473269E-05  4.59473269E-05  4.59473269E-05  4.59473269E-05  4.59473269E-05  4.59473269E-05  4.59473269E-05  4.59473269E-05  4.59473269E-05  4.59473269E-05  4.59473269E-05  4.59473269E-05  4.59473269E-05  4.59473269E-05  4.59473269E-05  4.59473269E-05  4.59473269E-05  4.59473269E-05  4.59473269E-05  4.59473269E-05  4.59473269E-05  4.59473269E-05  4.59473269E-05  4.59473269E-05  4.59473269E-05  3.28719648E-06  2.68548547E-06  2.21377604E-06  1.62693914E-06  1.25838551E-06  8.44454860E-07  5.82965924E-07  4.35198444E-07  2.70996168E-07  2.24417775E-07  2.15290839E-07  1.32867744E-05  3.80928068E-05  4.08922751E-05  4.01126963E-05  4.53729917E-05  6.28945563E-05  6.63761894E-05  6.38074998E-05  8.63051100E-05  7.15123388E-05  5.28460114E-05  4.18382915E-05  4.12920417E-05  9.36541312E-07  1.20028244E-06  1.16468857E-06  1.12051669E-06  1.40039640E-06  1.51475581E-06  1.42765771E-06  1.48267372E-06  1.49831135E-06  1.24962276E-06  9.83166956E-07  7.79177242E-07  6.29665976E-07  5.92917957E-07  4.77031790E-07  4.58356595E-07  4.78896084E-07  1.84962901E-05  4.06688232E-05  8.61922163E-05  1.11399560E-04  1.24663915E-04  1.42710021E-04  1.35117763E-04  1.29803724E-04  1.09909328E-04  1.34194037E-04  1.63417179E-04  2.10741608E-04  2.60330213E-04  2.60888744E-04  1.97361514E-04  1.11001173E-04  5.62287423E-05  1.39003009E-06  1.94757808E-06  2.41505518E-06  2.88184924E-06  3.09348320E-06  2.43521549E-06  1.59670560E-06  9.95273126E-07  6.36931247E-07  4.84622092E-07  4.06415040E-07  4.09956847E-05  4.27349696E-05  4.01141806E-05  4.04385755E-05  2.18822770E-05  2.13279473E-05  2.28294357E-05  1.12308999E-06  4.59473269E-05  4.59473269E-05  4.59473269E-05  4.59473269E-05  4.59473269E-05  4.59473269E-05  4.59473269E-05  4.59473269E-05  4.59473269E-05  4.59473269E-05  4.59473269E-05  3.60051822E-10  2.83401136E-10  5.86050319E-10  5.72623946E-07  3.07478814E-07
      6.40545963E-08  6.26246717E-08  4.02836342E-08  7.31011056E-08  8.99410253E-08  1.76179228E-07  1.89652923E-07  1.61501859E-07  1.21701547E-07  6.52501697E-08  3.95511677E-08  2.32213182E-08  1.03742430E-07  1.28504610E-07  1.86330752E-07  2.45031856E-07  8.13895822E-05  9.01034218E-05  9.15253258E-05  7.00927501E-07  4.59473269E-05  4.59473269E-05  4.59473269E-05  4.59473269E-05  4.59473269E-05  4.59473269E-05  4.59473269E-05  4.59473269E-05  4.59473269E-05  4.59473269E-05  4.59473269E-05  4.59473269E-05  4.59473269E-05  4.59473269E-05  4.59473269E-05  4.59473269E-05  4.59473269E-05  4.59473269E-05  4.59473269E-05  4.59473269E-05  4.59473269E-05  4.59473269E-05  4.59473269E-05  4.59473269E-05  4.59473269E-05  4.59473269E-05  4.59473269E-05  4.59473269E-05  4.59473269E-05  2.17032584E-06  1.79218739E-06  1.44848855E-06  9.55505357E-07  6.21376728E-07  5.39418068E-07  4.04527782E-07  3.38630485E-07  3.31953601E-07  3.98291604E-07  1.30653198E-05  1.53030542E-05  1.52750345E-05  3.48330250E-05  3.94599338E-05  6.17049227E-05  8.69777650E-05  9.31232717E-05  1.00506026E-04  9.18733494E-05  5.56787600E-05  3.37673373E-05  3.10385549E-05  1.18522951E-06  1.31472211E-06  1.11977943E-06  1.17275556E-06  1.45941556E-06  1.49112032E-06  1.62310403E-06  1.43426530E-06  1.31648926E-06  9.11013160E-07  6.76848515E-07  5.00002670E-07  4.14741152E-07  4.18008653E-07  4.41403557E-07  3.87902787E-07  2.46476375E-05  8.47656192E-05  1.14740309E-04  1.57962073E-04  1.70304338E-04  1.50729364E-04  1.35711598E-04  1.27142965E-04  1.06735475E-04  1.15878618E-04  1.40333737E-04  1.89014623E-04  2.33307903E-04  2.26429460E-04  1.55036716E-04  9.26928988E-05  4.38196439E-05  9.60590000E-07  1.47965898E-06  1.93086316E-06  2.44559624E-06  2.46745685E-06  1.79354413E-06  1.32358673E-06  8.62405727E-07  6.35014317E-07  4.71162053E-07  4.07239270E-07  3.04195819E-05  5.17486296E-05  2.16822136E-05  4.59769617E-05  2.19928679E-05  1.67210710E-05  8.42963232E-07  1.12502892E-06  4.59473269E-05  4.59473269E-05  4.59473269E-05  4.59473269E-05  4.59473269E-05  4.59473269E-05  4.59473269E-05  4.59473269E-05  4.59473269E-05  4.59473269E-05  4.59473269E-05  7.26712190E-10  5.29535633E-08  3.63744768E-08  5.09832399E-10  3.19184153E-07
      8.75413306E-08  4.77471680E-08  5.06174054E-08  5.44208483E-08  1.04974603E-07  2.56950472E-07  2.50086515E-07  1.05714960E-07  5.87917164E-08  2.45432723E-08  2.48468019E-08  2.32664270E-08  2.53077879E-08  1.06795817E-07  1.16016473E-07  2.05035207E-07  1.20203302E-04  2.32821971E-04  1.07076849E-04  4.59473269E-05  4.59473269E-05  4.59473269E-05  4.59473269E-05  4.59473269E-05  4.59473269E-05  4.59473269E-05  4.59473269E-05  4.59473269E-05  4.59473269E-05  4.59473269E-05  4.59473269E-05  4.59473269E-05  4.59473269E-05  4.59473269E-05  4.59473269E-05  4.59473269E-05  4.59473269E-05  4.59473269E-05  4.59473269E-05  4.59473269E-05  4.59473269E-05  4.59473269E-05  4.59473269E-05  4.59473269E-05  4.59473269E-05  4.59473269E-05  4.59473269E-05  4.59473269E-05  4.59473269E-05  4.59473269E-05  1.88309320E-06  1.60581192E-06  1.13310898E-06  7.69261760E-07  5.87340594E-07  5.52674464E-07  5.01566433E-07  4.97953863E-07  6.84761289E-07  8.85015140E-07  1.06919379E-06  1.73929093E-05  2.10315538E-05  4.60388801E-05  7.26544749E-05  1.03828563E-04  1.30862143E-04  1.25473976E-04  8.24440503E-05  7.21487886E-05  4.07596417E-05  9.18857324E-07  1.07086669E-06  1.21223411E-06  1.27991655E-06  1.33088452E-06  1.27926444E-06  1.39729980E-06  1.52741279E-06  1.43970385E-06  1.29444925E-06  9.00943348E-07  5.68197834E-07  4.25614331E-07  3.62897993E-07  3.94932385E-07  4.11847623E-07  2.23323786E-05  2.92014156E-05  1.09165594E-04  1.18649332E-04  1.83880155E-04  2.13460968E-04  1.84491480E-04  1.54692636E-04  1.23525417E-04  1.05765110E-04  1.05901418E-04  1.26347120E-04  1.62156226E-04  1.77887414E-04  1.68606886E-04  1.21747777E-04  7.93662985E-05  6.59684986E-07  8.78678009E-07  1.33897686E-06  1.92690004E-06  2.36871938E-06  2.44123885E-06  1.73668900E-06  1.09339442E-06  7.51148946E-07  6.27060047E-07  4.33438856E-07  3.46989111E-07  2.93623373E-07  2.97092157E-07  2.19900130E-07  2.59437826E-07  1.73274639E-05  1.23300597E-05  1.01440253E-06  1.16576825E-06  1.29575699E-06  4.59473269E-05  4.59473269E-05  4.59473269E-05  4.59473269E-05  4.59473269E-05  4.59473269E-05  4.59473269E-05  4.59473269E-05  4.59473269E-05  4.59473269E-05  8.43356274E-10  5.68803171E-10  5.28923461E-10  4.74201016E-08  4.52815982E-07
      7.41742952E-08  5.86239821E-08  6.25651566E-08  4.54706175E-08  1.16081772E-07  1.60525772E-07  1.56390470E-07  1.39951467E-07  6.01443233E-08  4.44709087E-08  3.23973239E-08  3.62565018E-08  3.46486750E-08  2.96442355E-08  1.06269930E-07  1.85254819E-07  1.57037794E-04  3.26831010E-04  1.37496376E-04  4.59473269E-05  4.59473269E-05  4.59473269E-05  4.59473269E-05  4.59473269E-05  4.59473269E-05  4.59473269E-05  4.59473269E-05  4.59473269E-05  4.59473269E-05  4.59473269E-05  4.59473269E-05  4.59473269E-05  4.59473269E-05  4.59473269E-05  4.59473269E-05  4.59473269E-05  4.59473269E-05  4.59473269E-05  4.59473269E-05  4.59473269E-05  4.59473269E-05  4.59473269E-05  4.59473269E-05  4.59473269E-05  4.59473269E-05  4.59473269E-05  4.59473269E-05  4.59473269E-05  4.59473269E-05  4.59473269E-05  4.59473269E-05  1.58764431E-06  1.35989171E-06  9.40662574E-07  8.15222279E-07  7.38570691E-07  8.79849267E-07  9.15785904E-07  1.00059844E-06  1.21442724E-06  1.64191715E-06  2.09971276E-05  4.89145350E-05  5.81560598E-05  9.43861742E-05  1.36420320E-04  1.32110057E-04  1.15983734E-04  1.20471486E-04  1.07718544E-04  6.30604700E-05  1.05360186E-06  1.01698663E-06  1.00109514E-06  1.20075583E-06  1.17063587E-06  1.30708725E-06  1.50088874E-06  1.46054072E-06  1.25830047E-06  1.07773326E-06  8.05746083E-07  5.54292910E-07  1.48129166E-05  3.52180450E-07  3.77026169E-07  2.14521970E-05  2.56294952E-05  7.07709478E-05  9.55904761E-05  2.06957338E-04  2.21595779E-04  2.50644865E-04  1.99560032E-04  1.46750041E-04  1.13682501E-04  1.01724669E-04  9.30828392E-05  8.26741962E-05  1.08216504E-04  1.22931538E-04  1.10350331E-04  8.15038293E-05  4.88680882E-07  6.93758295E-07  9.68938593E-07  1.45228830E-06  2.02344836E-06  2.32484376E-06  2.30740875E-06  1.74455818E-06  1.19208210E-06  8.27064866E-07  6.93806669E-07  5.02486387E-07  3.90257554E-07  3.31859951E-07  2.58083077E-07  2.14054737E-07  2.71749769E-07  3.64217982E-07  5.88576881E-07  1.05028573E-06  1.75479533E-06  1.75158061E-06  1.74806860E-06  4.59473269E-05  4.59473269E-05  4.59473269E-05  4.59473269E-05  4.59473269E-05  4.59473269E-05  4.59473269E-05  4.59473269E-05  4.59473269E-05  4.40883952E-08  5.60186457E-08  3.94728374E-08  2.19068241E-07  6.36310688E-07