# File generated by Flopy version 3.9.1 on 06/09/2025 at 13:01:24.
BEGIN options
  COMPLEXITY  moderate
END options

BEGIN linear
  INNER_DVCLOSE  1.00000000E-05
END linear

