# File generated by Flopy version 3.9.3 on 10/06/2025 at 15:10:34.
BEGIN options
  auxiliary  TEMPERATURE
  SAVE_FLOWS
END options

BEGIN dimensions
  MAXBOUND  1
END dimensions

BEGIN period  1
  22 26 51 1.50000000E-03 7
END period  1

