# File generated by Flopy version 3.9.1 on 06/24/2025 at 08:50:37.
BEGIN options
  auxiliary  TEMPERATURE
  SAVE_FLOWS
END options

BEGIN dimensions
  MAXBOUND  1
END dimensions

BEGIN period  1
  22 26 51 1.50000000E-03 7
END period  1

