# File generated by Flopy version 3.9.1 on 06/24/2025 at 08:50:36.
BEGIN options
END options

BEGIN griddata
  strt
    CONSTANT       1.00000000
END griddata

