# File generated by Flopy version 3.9.2 on 06/23/2025 at 11:54:37.
BEGIN options
  SAVE_FLOWS
  SAVE_SPECIFIC_DISCHARGE
  SAVE_SATURATION
END options

BEGIN griddata
  icelltype
    CONSTANT  0
  k  LAYERED
    INTERNAL  FACTOR  1.0
      9.99999975E-05  9.99999975E-05  9.99999975E-05  9.99999975E-05  9.99999975E-05  9.99999975E-05  9.99999975E-05  9.99999975E-05  9.99999975E-05  9.99999975E-05  9.99999975E-05  9.99999975E-05  9.99999975E-05  9.99999975E-05  9.99999975E-05  9.99999975E-05  9.99999975E-05  9.99999975E-05  9.99999975E-05  9.99999975E-05  9.99999975E-05  9.99999975E-05  9.99999975E-05  9.99999975E-05  9.99999975E-05  9.99999975E-05  9.99999975E-05  9.99999975E-05  9.99999975E-05  9.99999975E-05  9.99999975E-05  9.99999975E-05  9.99999975E-05  9.99999975E-05  9.99999975E-05  9.99999975E-05  9.99999975E-05  9.99999975E-05  9.99999975E-05  9.99999975E-05  9.99999975E-05  9.99999975E-05  9.99999975E-05  9.99999975E-05  9.99999975E-05  9.99999975E-05  9.99999975E-05  9.99999975E-05  9.99999975E-05  9.99999975E-05  9.99999975E-05  9.99999975E-05  9.99999975E-05  9.99999975E-05  9.99999975E-05  9.99999975E-05  9.99999975E-05  9.99999975E-05  9.99999975E-05  9.99999975E-05  9.99999975E-05  9.99999975E-05  9.99999975E-05  9.99999975E-05  9.99999975E-05  9.99999975E-05  9.99999975E-05  9.99999975E-05  9.99999975E-05  9.99999975E-05  9.99999975E-05  9.99999975E-05  9.99999975E-05  9.99999975E-05  9.99999975E-05  9.99999975E-05  9.99999975E-05  9.99999975E-05  9.99999975E-05  9.99999975E-05  9.99999975E-05  9.99999975E-05  9.99999975E-05  9.99999975E-05  9.99999975E-05  9.99999975E-05  9.99999975E-05  9.99999975E-05  9.99999975E-05  9.99999975E-05  9.99999975E-05  9.99999975E-05  9.99999975E-05  9.99999975E-05  9.99999975E-05  9.99999975E-05  9.99999975E-05  9.99999975E-05  9.99999975E-05  9.99999975E-05
      9.99999975E-05  9.99999975E-05  9.99999975E-05  9.99999975E-05  9.99999975E-05  9.99999975E-05  9.99999975E-05  9.99999975E-05  9.99999975E-05  9.99999975E-05  9.99999975E-05  9.99999975E-05  9.99999975E-05  9.99999975E-05  9.99999975E-05  9.99999975E-05  9.99999975E-05  9.99999975E-05  9.99999975E-05  9.99999975E-05  9.99999975E-05  9.99999975E-05  9.99999975E-05  9.99999975E-05  9.99999975E-05  9.99999975E-05  9.99999975E-05  9.99999975E-05  9.99999975E-05  9.99999975E-05  9.99999975E-05  9.99999975E-05  9.99999975E-05  9.99999975E-05  9.99999975E-05  9.99999975E-05  9.99999975E-05  9.99999975E-05  9.99999975E-05  9.99999975E-05  9.99999975E-05  9.99999975E-05  9.99999975E-05  9.99999975E-05  9.99999975E-05  9.99999975E-05  9.99999975E-05  9.99999975E-05  9.99999975E-05  9.99999975E-05  9.99999975E-05  9.99999975E-05  9.99999975E-05  9.99999975E-05  9.99999975E-05  9.99999975E-05  9.99999975E-05  9.99999975E-05  9.99999975E-05  9.99999975E-05  9.99999975E-05  9.99999975E-05  9.99999975E-05  9.99999975E-05  9.99999975E-05  9.99999975E-05  9.99999975E-05  9.99999975E-05  9.99999975E-05  9.99999975E-05  9.99999975E-05  9.99999975E-05  9.99999975E-05  9.99999975E-05  9.99999975E-05  9.99999975E-05  9.99999975E-05  9.99999975E-05  9.99999975E-05  9.99999975E-05  9.99999975E-05  9.99999975E-05  9.99999975E-05  9.99999975E-05  9.99999975E-05  9.99999975E-05  9.99999975E-05  9.99999975E-05  9.99999975E-05  9.99999975E-05  9.99999975E-05  9.99999975E-05  9.99999975E-05  9.99999975E-05  9.99999975E-05  9.99999975E-05  9.99999975E-05  9.99999975E-05  9.99999975E-05  9.99999975E-05
      9.99999975E-05  9.99999975E-05  9.99999975E-05  9.99999975E-05  9.99999975E-05  9.99999975E-05  9.99999975E-05  9.99999975E-05  9.99999975E-05  9.99999975E-05  9.99999975E-05  9.99999975E-05  9.99999975E-05  9.99999975E-05  9.99999975E-05  9.99999975E-05  9.99999975E-05  9.99999975E-05  9.99999975E-05  9.99999975E-05  9.99999975E-05  9.99999975E-05  9.99999975E-05  9.99999975E-05  9.99999975E-05  9.99999975E-05  9.99999975E-05  9.99999975E-05  9.99999975E-05  9.99999975E-05  9.99999975E-05  9.99999975E-05  9.99999975E-05  9.99999975E-05  9.99999975E-05  9.99999975E-05  9.99999975E-05  9.99999975E-05  9.99999975E-05  9.99999975E-05  9.99999975E-05  9.99999975E-05  9.99999975E-05  9.99999975E-05  9.99999975E-05  9.99999975E-05  9.99999975E-05  9.99999975E-05  9.99999975E-05  9.99999975E-05  9.99999975E-05  9.99999975E-05  9.99999975E-05  9.99999975E-05  9.99999975E-05  9.99999975E-05  9.99999975E-05  9.99999975E-05  9.99999975E-05  9.99999975E-05  9.99999975E-05  9.99999975E-05  9.99999975E-05  9.99999975E-05  9.99999975E-05  9.99999975E-05  9.99999975E-05  9.99999975E-05  9.99999975E-05  9.99999975E-05  9.99999975E-05  9.99999975E-05  9.99999975E-05  9.99999975E-05  9.99999975E-05  9.99999975E-05  9.99999975E-05  9.99999975E-05  9.99999975E-05  9.99999975E-05  9.99999975E-05  9.99999975E-05  9.99999975E-05  9.99999975E-05  9.99999975E-05  9.99999975E-05  9.99999975E-05  9.99999975E-05  9.99999975E-05  9.99999975E-05  9.99999975E-05  9.99999975E-05  9.99999975E-05  9.99999975E-05  9.99999975E-05  9.99999975E-05  9.99999975E-05  9.99999975E-05  9.99999975E-05  9.99999975E-05
      9.99999975E-05  9.99999975E-05  9.99999975E-05  9.99999975E-05  9.99999975E-05  9.99999975E-05  9.99999975E-05  9.99999975E-05  9.99999975E-05  9.99999975E-05  9.99999975E-05  9.99999975E-05  9.99999975E-05  9.99999975E-05  9.99999975E-05  9.99999975E-05  9.99999975E-05  9.99999975E-05  9.99999975E-05  9.99999975E-05  9.99999975E-05  9.99999975E-05  9.99999975E-05  9.99999975E-05  9.99999975E-05  9.99999975E-05  9.99999975E-05  9.99999975E-05  9.99999975E-05  9.99999975E-05  9.99999975E-05  9.99999975E-05  9.99999975E-05  9.99999975E-05  9.99999975E-05  9.99999975E-05  9.99999975E-05  9.99999975E-05  9.99999975E-05  9.99999975E-05  9.99999975E-05  9.99999975E-05  9.99999975E-05  9.99999975E-05  9.99999975E-05  9.99999975E-05  9.99999975E-05  9.99999975E-05  9.99999975E-05  9.99999975E-05  9.99999975E-05  9.99999975E-05  9.99999975E-05  9.99999975E-05  9.99999975E-05  9.99999975E-05  9.99999975E-05  9.99999975E-05  9.99999975E-05  9.99999975E-05  9.99999975E-05  9.99999975E-05  9.99999975E-05  9.99999975E-05  9.99999975E-05  9.99999975E-05  9.99999975E-05  9.99999975E-05  9.99999975E-05  9.99999975E-05  9.99999975E-05  9.99999975E-05  9.99999975E-05  9.99999975E-05  9.99999975E-05  9.99999975E-05  9.99999975E-05  9.99999975E-05  9.99999975E-05  9.99999975E-05  9.99999975E-05  9.99999975E-05  9.99999975E-05  9.99999975E-05  9.99999975E-05  9.99999975E-05  9.99999975E-05  9.99999975E-05  9.99999975E-05  9.99999975E-05  9.99999975E-05  9.99999975E-05  9.99999975E-05  9.99999975E-05  9.99999975E-05  9.99999975E-05  9.99999975E-05  9.99999975E-05  9.99999975E-05  9.99999975E-05
      9.99999975E-05  9.99999975E-05  9.99999975E-05  9.99999975E-05  9.99999975E-05  9.99999975E-05  9.99999975E-05  9.99999975E-05  9.99999975E-05  9.99999975E-05  9.99999975E-05  9.99999975E-05  9.99999975E-05  9.99999975E-05  9.99999975E-05  9.99999975E-05  9.99999975E-05  9.99999975E-05  9.99999975E-05  9.99999975E-05  9.99999975E-05  9.99999975E-05  9.99999975E-05  9.99999975E-05  9.99999975E-05  9.99999975E-05  9.99999975E-05  9.99999975E-05  9.99999975E-05  9.99999975E-05  9.99999975E-05  9.99999975E-05  9.99999975E-05  9.99999975E-05  9.99999975E-05  9.99999975E-05  9.99999975E-05  9.99999975E-05  9.99999975E-05  9.99999975E-05  9.99999975E-05  9.99999975E-05  9.99999975E-05  9.99999975E-05  9.99999975E-05  9.99999975E-05  9.99999975E-05  9.99999975E-05  9.99999975E-05  9.99999975E-05  9.99999975E-05  9.99999975E-05  9.99999975E-05  9.99999975E-05  9.99999975E-05  9.99999975E-05  9.99999975E-05  9.99999975E-05  9.99999975E-05  9.99999975E-05  9.99999975E-05  9.99999975E-05  9.99999975E-05  9.99999975E-05  9.99999975E-05  9.99999975E-05  9.99999975E-05  9.99999975E-05  9.99999975E-05  9.99999975E-05  9.99999975E-05  9.99999975E-05  9.99999975E-05  9.99999975E-05  9.99999975E-05  9.99999975E-05  9.99999975E-05  9.99999975E-05  9.99999975E-05  9.99999975E-05  9.99999975E-05  9.99999975E-05  9.99999975E-05  9.99999975E-05  9.99999975E-05  9.99999975E-05  9.99999975E-05  9.99999975E-05  9.99999975E-05  9.99999975E-05  9.99999975E-05  9.99999975E-05  9.99999975E-05  9.99999975E-05  9.99999975E-05  9.99999975E-05  9.99999975E-05  9.99999975E-05  9.99999975E-05  9.99999975E-05
      9.99999975E-05  9.99999975E-05  9.99999975E-05  9.99999975E-05  9.99999975E-05  9.99999975E-05  9.99999975E-05  9.99999975E-05  9.99999975E-05  9.99999975E-05  9.99999975E-05  9.99999975E-05  9.99999975E-05  9.99999975E-05  9.99999975E-05  9.99999975E-05  9.99999975E-05  9.99999975E-05  9.99999975E-05  9.99999975E-05  9.99999975E-05  9.99999975E-05  9.99999975E-05  9.99999975E-05  9.99999975E-05  9.99999975E-05  9.99999975E-05  9.99999975E-05  9.99999975E-05  9.99999975E-05  9.99999975E-05  9.99999975E-05  9.99999975E-05  9.99999975E-05  9.99999975E-05  9.99999975E-05  9.99999975E-05  9.99999975E-05  9.99999975E-05  9.99999975E-05  9.99999975E-05  9.99999975E-05  9.99999975E-05  9.99999975E-05  9.99999975E-05  9.99999975E-05  9.99999975E-05  9.99999975E-05  9.99999975E-05  9.99999975E-05  9.99999975E-05  9.99999975E-05  9.99999975E-05  9.99999975E-05  9.99999975E-05  9.99999975E-05  9.99999975E-05  9.99999975E-05  9.99999975E-05  9.99999975E-05  9.99999975E-05  9.99999975E-05  9.99999975E-05  9.99999975E-05  9.99999975E-05  9.99999975E-05  9.99999975E-05  9.99999975E-05  9.99999975E-05  9.99999975E-05  9.99999975E-05  9.99999975E-05  9.99999975E-05  9.99999975E-05  9.99999975E-05  9.99999975E-05  9.99999975E-05  9.99999975E-05  9.99999975E-05  9.99999975E-05  9.99999975E-05  9.99999975E-05  9.99999975E-05  9.99999975E-05  9.99999975E-05  9.99999975E-05  9.99999975E-05  9.99999975E-05  9.99999975E-05  9.99999975E-05  9.99999975E-05  9.99999975E-05  9.99999975E-05  9.99999975E-05  9.99999975E-05  9.99999975E-05  9.99999975E-05  9.99999975E-05  9.99999975E-05  9.99999975E-05
      9.99999975E-05  9.99999975E-05  9.99999975E-05  9.99999975E-05  9.99999975E-05  9.99999975E-05  9.99999975E-05  9.99999975E-05  9.99999975E-05  9.99999975E-05  9.99999975E-05  9.99999975E-05  9.99999975E-05  9.99999975E-05  9.99999975E-05  9.99999975E-05  9.99999975E-05  9.99999975E-05  9.99999975E-05  9.99999975E-05  9.99999975E-05  9.99999975E-05  9.99999975E-05  9.99999975E-05  9.99999975E-05  9.99999975E-05  9.99999975E-05  9.99999975E-05  9.99999975E-05  9.99999975E-05  9.99999975E-05  9.99999975E-05  9.99999975E-05  9.99999975E-05  9.99999975E-05  9.99999975E-05  9.99999975E-05  9.99999975E-05  9.99999975E-05  9.99999975E-05  9.99999975E-05  9.99999975E-05  9.99999975E-05  9.99999975E-05  9.99999975E-05  9.99999975E-05  9.99999975E-05  9.99999975E-05  9.99999975E-05  9.99999975E-05  9.99999975E-05  9.99999975E-05  9.99999975E-05  9.99999975E-05  9.99999975E-05  9.99999975E-05  9.99999975E-05  9.99999975E-05  9.99999975E-05  9.99999975E-05  9.99999975E-05  9.99999975E-05  9.99999975E-05  9.99999975E-05  9.99999975E-05  9.99999975E-05  9.99999975E-05  9.99999975E-05  9.99999975E-05  9.99999975E-05  9.99999975E-05  9.99999975E-05  9.99999975E-05  9.99999975E-05  9.99999975E-05  9.99999975E-05  9.99999975E-05  9.99999975E-05  9.99999975E-05  9.99999975E-05  9.99999975E-05  9.99999975E-05  9.99999975E-05  9.99999975E-05  9.99999975E-05  9.99999975E-05  9.99999975E-05  9.99999975E-05  9.99999975E-05  9.99999975E-05  9.99999975E-05  9.99999975E-05  9.99999975E-05  9.99999975E-05  9.99999975E-05  9.99999975E-05  9.99999975E-05  9.99999975E-05  9.99999975E-05  9.99999975E-05
      9.99999975E-05  9.99999975E-05  9.99999975E-05  9.99999975E-05  9.99999975E-05  9.99999975E-05  9.99999975E-05  9.99999975E-05  9.99999975E-05  9.99999975E-05  9.99999975E-05  9.99999975E-05  9.99999975E-05  9.99999975E-05  9.99999975E-05  9.99999975E-05  9.99999975E-05  9.99999975E-05  9.99999975E-05  9.99999975E-05  9.99999975E-05  9.99999975E-05  9.99999975E-05  9.99999975E-05  9.99999975E-05  9.99999975E-05  9.99999975E-05  9.99999975E-05  9.99999975E-05  9.99999975E-05  9.99999975E-05  9.99999975E-05  9.99999975E-05  9.99999975E-05  9.99999975E-05  9.99999975E-05  9.99999975E-05  9.99999975E-05  9.99999975E-05  9.99999975E-05  9.99999975E-05  9.99999975E-05  9.99999975E-05  9.99999975E-05  9.99999975E-05  9.99999975E-05  9.99999975E-05  9.99999975E-05  9.99999975E-05  9.99999975E-05  9.99999975E-05  9.99999975E-05  9.99999975E-05  9.99999975E-05  9.99999975E-05  9.99999975E-05  9.99999975E-05  9.99999975E-05  9.99999975E-05  9.99999975E-05  9.99999975E-05  9.99999975E-05  9.99999975E-05  9.99999975E-05  9.99999975E-05  9.99999975E-05  9.99999975E-05  9.99999975E-05  9.99999975E-05  9.99999975E-05  9.99999975E-05  9.99999975E-05  9.99999975E-05  9.99999975E-05  9.99999975E-05  9.99999975E-05  9.99999975E-05  9.99999975E-05  9.99999975E-05  9.99999975E-05  9.99999975E-05  9.99999975E-05  9.99999975E-05  9.99999975E-05  9.99999975E-05  9.99999975E-05  9.99999975E-05  9.99999975E-05  9.99999975E-05  9.99999975E-05  9.99999975E-05  9.99999975E-05  9.99999975E-05  9.99999975E-05  9.99999975E-05  9.99999975E-05  9.99999975E-05  9.99999975E-05  9.99999975E-05  9.99999975E-05
      9.99999975E-05  9.99999975E-05  9.99999975E-05  9.99999975E-05  9.99999975E-05  9.99999975E-05  9.99999975E-05  9.99999975E-05  9.99999975E-05  9.99999975E-05  9.99999975E-05  9.99999975E-05  9.99999975E-05  9.99999975E-05  9.99999975E-05  9.99999975E-05  9.99999975E-05  9.99999975E-05  9.99999975E-05  9.99999975E-05  9.99999975E-05  9.99999975E-05  9.99999975E-05  9.99999975E-05  9.99999975E-05  9.99999975E-05  9.99999975E-05  9.99999975E-05  9.99999975E-05  9.99999975E-05  9.99999975E-05  9.99999975E-05  9.99999975E-05  9.99999975E-05  9.99999975E-05  9.99999975E-05  9.99999975E-05  9.99999975E-05  9.99999975E-05  9.99999975E-05  9.99999975E-05  9.99999975E-05  9.99999975E-05  9.99999975E-05  9.99999975E-05  9.99999975E-05  9.99999975E-05  9.99999975E-05  9.99999975E-05  9.99999975E-05  9.99999975E-05  9.99999975E-05  9.99999975E-05  9.99999975E-05  9.99999975E-05  9.99999975E-05  9.99999975E-05  9.99999975E-05  9.99999975E-05  9.99999975E-05  9.99999975E-05  9.99999975E-05  9.99999975E-05  9.99999975E-05  9.99999975E-05  9.99999975E-05  9.99999975E-05  9.99999975E-05  9.99999975E-05  9.99999975E-05  9.99999975E-05  9.99999975E-05  9.99999975E-05  9.99999975E-05  9.99999975E-05  9.99999975E-05  9.99999975E-05  9.99999975E-05  9.99999975E-05  9.99999975E-05  9.99999975E-05  9.99999975E-05  9.99999975E-05  9.99999975E-05  9.99999975E-05  9.99999975E-05  9.99999975E-05  9.99999975E-05  9.99999975E-05  9.99999975E-05  9.99999975E-05  9.99999975E-05  9.99999975E-05  9.99999975E-05  9.99999975E-05  9.99999975E-05  9.99999975E-05  9.99999975E-05  9.99999975E-05  9.99999975E-05
      9.99999975E-05  9.99999975E-05  9.99999975E-05  9.99999975E-05  9.99999975E-05  9.99999975E-05  9.99999975E-05  9.99999975E-05  9.99999975E-05  9.99999975E-05  9.99999975E-05  9.99999975E-05  9.99999975E-05  9.99999975E-05  9.99999975E-05  9.99999975E-05  9.99999975E-05  9.99999975E-05  9.99999975E-05  9.99999975E-05  9.99999975E-05  9.99999975E-05  9.99999975E-05  9.99999975E-05  9.99999975E-05  9.99999975E-05  9.99999975E-05  9.99999975E-05  9.99999975E-05  9.99999975E-05  9.99999975E-05  9.99999975E-05  9.99999975E-05  9.99999975E-05  9.99999975E-05  9.99999975E-05  9.99999975E-05  9.99999975E-05  9.99999975E-05  9.99999975E-05  9.99999975E-05  9.99999975E-05  9.99999975E-05  9.99999975E-05  9.99999975E-05  9.99999975E-05  9.99999975E-05  9.99999975E-05  9.99999975E-05  9.99999975E-05  9.99999975E-05  9.99999975E-05  9.99999975E-05  9.99999975E-05  9.99999975E-05  9.99999975E-05  9.99999975E-05  9.99999975E-05  9.99999975E-05  9.99999975E-05  9.99999975E-05  9.99999975E-05  9.99999975E-05  9.99999975E-05  9.99999975E-05  9.99999975E-05  9.99999975E-05  9.99999975E-05  9.99999975E-05  9.99999975E-05  9.99999975E-05  9.99999975E-05  9.99999975E-05  9.99999975E-05  9.99999975E-05  9.99999975E-05  9.99999975E-05  9.99999975E-05  9.99999975E-05  9.99999975E-05  9.99999975E-05  9.99999975E-05  9.99999975E-05  9.99999975E-05  9.99999975E-05  9.99999975E-05  9.99999975E-05  9.99999975E-05  9.99999975E-05  9.99999975E-05  9.99999975E-05  9.99999975E-05  9.99999975E-05  9.99999975E-05  9.99999975E-05  9.99999975E-05  9.99999975E-05  9.99999975E-05  9.99999975E-05  9.99999975E-05
      9.99999975E-05  9.99999975E-05  9.99999975E-05  9.99999975E-05  9.99999975E-05  9.99999975E-05  9.99999975E-05  9.99999975E-05  9.99999975E-05  9.99999975E-05  9.99999975E-05  9.99999975E-05  9.99999975E-05  9.99999975E-05  9.99999975E-05  9.99999975E-05  9.99999975E-05  9.99999975E-05  9.99999975E-05  9.99999975E-05  9.99999975E-05  9.99999975E-05  9.99999975E-05  9.99999975E-05  9.99999975E-05  9.99999975E-05  9.99999975E-05  9.99999975E-05  9.99999975E-05  9.99999975E-05  9.99999975E-05  9.99999975E-05  9.99999975E-05  9.99999975E-05  9.99999975E-05  9.99999975E-05  9.99999975E-05  9.99999975E-05  9.99999975E-05  9.99999975E-05  9.99999975E-05  9.99999975E-05  9.99999975E-05  9.99999975E-05  9.99999975E-05  9.99999975E-05  9.99999975E-05  9.99999975E-05  9.99999975E-05  9.99999975E-05  9.99999975E-05  9.99999975E-05  9.99999975E-05  9.99999975E-05  9.99999975E-05  9.99999975E-05  9.99999975E-05  9.99999975E-05  9.99999975E-05  9.99999975E-05  9.99999975E-05  9.99999975E-05  9.99999975E-05  9.99999975E-05  9.99999975E-05  9.99999975E-05  9.99999975E-05  9.99999975E-05  9.99999975E-05  9.99999975E-05  9.99999975E-05  9.99999975E-05  9.99999975E-05  9.99999975E-05  9.99999975E-05  9.99999975E-05  9.99999975E-05  9.99999975E-05  9.99999975E-05  9.99999975E-05  9.99999975E-05  9.99999975E-05  9.99999975E-05  9.99999975E-05  9.99999975E-05  9.99999975E-05  9.99999975E-05  9.99999975E-05  9.99999975E-05  9.99999975E-05  9.99999975E-05  9.99999975E-05  9.99999975E-05  9.99999975E-05  9.99999975E-05  9.99999975E-05  9.99999975E-05  9.99999975E-05  9.99999975E-05  9.99999975E-05
      9.99999975E-05  9.99999975E-05  9.99999975E-05  9.99999975E-05  9.99999975E-05  9.99999975E-05  9.99999975E-05  9.99999975E-05  9.99999975E-05  9.99999975E-05  9.99999975E-05  9.99999975E-05  9.99999975E-05  9.99999975E-05  9.99999975E-05  9.99999975E-05  9.99999975E-05  9.99999975E-05  9.99999975E-05  9.99999975E-05  9.99999975E-05  9.99999975E-05  9.99999975E-05  9.99999975E-05  9.99999975E-05  9.99999975E-05  9.99999975E-05  9.99999975E-05  9.99999975E-05  9.99999975E-05  9.99999975E-05  9.99999975E-05  9.99999975E-05  9.99999975E-05  9.99999975E-05  9.99999975E-05  9.99999975E-05  9.99999975E-05  9.99999975E-05  9.99999975E-05  9.99999975E-05  9.99999975E-05  9.99999975E-05  9.99999975E-05  9.99999975E-05  9.99999975E-05  9.99999975E-05  9.99999975E-05  9.99999975E-05  9.99999975E-05  9.99999975E-05  9.99999975E-05  9.99999975E-05  9.99999975E-05  9.99999975E-05  9.99999975E-05  9.99999975E-05  9.99999975E-05  9.99999975E-05  9.99999975E-05  9.99999975E-05  9.99999975E-05  9.99999975E-05  9.99999975E-05  9.99999975E-05  9.99999975E-05  9.99999975E-05  9.99999975E-05  9.99999975E-05  9.99999975E-05  9.99999975E-05  9.99999975E-05  9.99999975E-05  9.99999975E-05  9.99999975E-05  9.99999975E-05  9.99999975E-05  9.99999975E-05  9.99999975E-05  9.99999975E-05  9.99999975E-05  9.99999975E-05  9.99999975E-05  9.99999975E-05  9.99999975E-05  9.99999975E-05  9.99999975E-05  9.99999975E-05  9.99999975E-05  9.99999975E-05  9.99999975E-05  9.99999975E-05  9.99999975E-05  9.99999975E-05  9.99999975E-05  9.99999975E-05  9.99999975E-05  9.99999975E-05  9.99999975E-05  9.99999975E-05
      9.99999975E-05  9.99999975E-05  9.99999975E-05  9.99999975E-05  9.99999975E-05  9.99999975E-05  9.99999975E-05  9.99999975E-05  9.99999975E-05  9.99999975E-05  9.99999975E-05  9.99999975E-05  9.99999975E-05  9.99999975E-05  9.99999975E-05  9.99999975E-05  9.99999975E-05  9.99999975E-05  9.99999975E-05  9.99999975E-05  9.99999975E-05  9.99999975E-05  9.99999975E-05  9.99999975E-05  9.99999975E-05  9.99999975E-05  9.99999975E-05  9.99999975E-05  9.99999975E-05  9.99999975E-05  9.99999975E-05  9.99999975E-05  9.99999975E-05  9.99999975E-05  9.99999975E-05  9.99999975E-05  9.99999975E-05  9.99999975E-05  9.99999975E-05  9.99999975E-05  9.99999975E-05  9.99999975E-05  9.99999975E-05  9.99999975E-05  9.99999975E-05  9.99999975E-05  9.99999975E-05  9.99999975E-05  9.99999975E-05  9.99999975E-05  9.99999975E-05  9.99999975E-05  9.99999975E-05  9.99999975E-05  9.99999975E-05  9.99999975E-05  9.99999975E-05  9.99999975E-05  9.99999975E-05  9.99999975E-05  9.99999975E-05  9.99999975E-05  9.99999975E-05  9.99999975E-05  9.99999975E-05  9.99999975E-05  9.99999975E-05  9.99999975E-05  9.99999975E-05  9.99999975E-05  9.99999975E-05  9.99999975E-05  9.99999975E-05  9.99999975E-05  9.99999975E-05       0.00501187  9.99999975E-05  9.99999975E-05  9.99999975E-05  9.99999975E-05  9.99999975E-05  9.99999975E-05  9.99999975E-05  9.99999975E-05  9.99999975E-05  9.99999975E-05  9.99999975E-05  9.99999975E-05  9.99999975E-05  9.99999975E-05  9.99999975E-05  9.99999975E-05  9.99999975E-05  9.99999975E-05  9.99999975E-05  9.99999975E-05  9.99999975E-05  9.99999975E-05  9.99999975E-05  9.99999975E-05
      9.99999975E-05  9.99999975E-05  9.99999975E-05  9.99999975E-05  9.99999975E-05  9.99999975E-05  9.99999975E-05  9.99999975E-05  9.99999975E-05  9.99999975E-05  9.99999975E-05  9.99999975E-05  9.99999975E-05  9.99999975E-05  9.99999975E-05  9.99999975E-05  9.99999975E-05  9.99999975E-05  9.99999975E-05  9.99999975E-05  9.99999975E-05  9.99999975E-05  9.99999975E-05  9.99999975E-05  9.99999975E-05  9.99999975E-05  9.99999975E-05  9.99999975E-05  9.99999975E-05  9.99999975E-05  9.99999975E-05  9.99999975E-05  9.99999975E-05  9.99999975E-05  9.99999975E-05  9.99999975E-05  9.99999975E-05  9.99999975E-05  9.99999975E-05  9.99999975E-05  9.99999975E-05  9.99999975E-05  9.99999975E-05  9.99999975E-05  9.99999975E-05  9.99999975E-05  9.99999975E-05  9.99999975E-05  9.99999975E-05  9.99999975E-05  9.99999975E-05  9.99999975E-05  9.99999975E-05  9.99999975E-05  9.99999975E-05  9.99999975E-05  9.99999975E-05  9.99999975E-05  9.99999975E-05  9.99999975E-05  9.99999975E-05  9.99999975E-05  9.99999975E-05  9.99999975E-05  9.99999975E-05  9.99999975E-05  9.99999975E-05  9.99999975E-05  9.99999975E-05  9.99999975E-05  9.99999975E-05  9.99999975E-05  9.99999975E-05  9.99999975E-05       0.00501187       0.00501187  9.99999975E-05  9.99999975E-05  9.99999975E-05  9.99999975E-05  9.99999975E-05  9.99999975E-05  9.99999975E-05  9.99999975E-05  9.99999975E-05  9.99999975E-05  9.99999975E-05  9.99999975E-05  9.99999975E-05  9.99999975E-05  9.99999975E-05  9.99999975E-05  9.99999975E-05  9.99999975E-05  9.99999975E-05  9.99999975E-05  9.99999975E-05  9.99999975E-05  9.99999975E-05  9.99999975E-05
      9.99999975E-05  9.99999975E-05  9.99999975E-05  9.99999975E-05  9.99999975E-05  9.99999975E-05  9.99999975E-05  9.99999975E-05  9.99999975E-05  9.99999975E-05  9.99999975E-05  9.99999975E-05  9.99999975E-05  9.99999975E-05  9.99999975E-05  9.99999975E-05  9.99999975E-05  9.99999975E-05  9.99999975E-05  9.99999975E-05  9.99999975E-05  9.99999975E-05  9.99999975E-05  9.99999975E-05  9.99999975E-05  9.99999975E-05  9.99999975E-05  9.99999975E-05  9.99999975E-05  9.99999975E-05  9.99999975E-05  9.99999975E-05  9.99999975E-05  9.99999975E-05  9.99999975E-05  9.99999975E-05  9.99999975E-05  9.99999975E-05  9.99999975E-05  9.99999975E-05  9.99999975E-05  9.99999975E-05  9.99999975E-05  9.99999975E-05  9.99999975E-05  9.99999975E-05  9.99999975E-05  9.99999975E-05  9.99999975E-05  9.99999975E-05  9.99999975E-05  9.99999975E-05  9.99999975E-05  9.99999975E-05  9.99999975E-05  9.99999975E-05  9.99999975E-05  9.99999975E-05  9.99999975E-05  9.99999975E-05  9.99999975E-05  9.99999975E-05  9.99999975E-05  9.99999975E-05  9.99999975E-05  9.99999975E-05  9.99999975E-05  9.99999975E-05  9.99999975E-05  9.99999975E-05  9.99999975E-05  9.99999975E-05  9.99999975E-05       0.00501187       0.00501187       0.00501187       0.00501187  9.99999975E-05  9.99999975E-05  9.99999975E-05  9.99999975E-05  9.99999975E-05  9.99999975E-05  9.99999975E-05  9.99999975E-05  9.99999975E-05  9.99999975E-05  9.99999975E-05  9.99999975E-05  9.99999975E-05  9.99999975E-05  9.99999975E-05  9.99999975E-05  9.99999975E-05  9.99999975E-05  9.99999975E-05  9.99999975E-05  9.99999975E-05  9.99999975E-05  9.99999975E-05
      9.99999975E-05  9.99999975E-05  9.99999975E-05  9.99999975E-05  9.99999975E-05  9.99999975E-05  9.99999975E-05  9.99999975E-05  9.99999975E-05  9.99999975E-05  9.99999975E-05  9.99999975E-05  9.99999975E-05  9.99999975E-05  9.99999975E-05  9.99999975E-05  9.99999975E-05  9.99999975E-05  9.99999975E-05  9.99999975E-05  9.99999975E-05  9.99999975E-05  9.99999975E-05  9.99999975E-05  9.99999975E-05  9.99999975E-05  9.99999975E-05  9.99999975E-05  9.99999975E-05  9.99999975E-05  9.99999975E-05  9.99999975E-05  9.99999975E-05  9.99999975E-05  9.99999975E-05  9.99999975E-05  9.99999975E-05  9.99999975E-05  9.99999975E-05  9.99999975E-05  9.99999975E-05  9.99999975E-05  9.99999975E-05  9.99999975E-05  9.99999975E-05  9.99999975E-05  9.99999975E-05  9.99999975E-05  9.99999975E-05  9.99999975E-05  9.99999975E-05  9.99999975E-05  9.99999975E-05  9.99999975E-05  9.99999975E-05  9.99999975E-05  9.99999975E-05  9.99999975E-05  9.99999975E-05  9.99999975E-05  9.99999975E-05  9.99999975E-05  9.99999975E-05  9.99999975E-05  9.99999975E-05  9.99999975E-05  9.99999975E-05  9.99999975E-05  9.99999975E-05  9.99999975E-05  9.99999975E-05  9.99999975E-05       0.00501187       0.00501187       0.00501187       0.00501187       0.00501187  9.99999975E-05  9.99999975E-05  9.99999975E-05  9.99999975E-05  9.99999975E-05  9.99999975E-05  9.99999975E-05  9.99999975E-05  9.99999975E-05  9.99999975E-05  9.99999975E-05  9.99999975E-05  9.99999975E-05  9.99999975E-05  9.99999975E-05  9.99999975E-05  9.99999975E-05  9.99999975E-05  9.99999975E-05  9.99999975E-05  9.99999975E-05  9.99999975E-05  9.99999975E-05
      9.99999975E-05  9.99999975E-05  9.99999975E-05  9.99999975E-05  9.99999975E-05  9.99999975E-05  9.99999975E-05  9.99999975E-05  9.99999975E-05  9.99999975E-05  9.99999975E-05  9.99999975E-05  9.99999975E-05  9.99999975E-05  9.99999975E-05  9.99999975E-05  9.99999975E-05  9.99999975E-05  9.99999975E-05  9.99999975E-05  9.99999975E-05  9.99999975E-05  9.99999975E-05  9.99999975E-05  9.99999975E-05  9.99999975E-05  9.99999975E-05  9.99999975E-05  9.99999975E-05  9.99999975E-05  9.99999975E-05  9.99999975E-05  9.99999975E-05  9.99999975E-05  9.99999975E-05  9.99999975E-05  9.99999975E-05  9.99999975E-05  9.99999975E-05  9.99999975E-05  9.99999975E-05  9.99999975E-05  9.99999975E-05  9.99999975E-05  9.99999975E-05  9.99999975E-05  9.99999975E-05  9.99999975E-05  9.99999975E-05  9.99999975E-05  9.99999975E-05  9.99999975E-05  9.99999975E-05  9.99999975E-05  9.99999975E-05  9.99999975E-05  9.99999975E-05  9.99999975E-05  9.99999975E-05  9.99999975E-05  9.99999975E-05  9.99999975E-05  9.99999975E-05  9.99999975E-05  9.99999975E-05  9.99999975E-05  9.99999975E-05  9.99999975E-05  9.99999975E-05  9.99999975E-05  9.99999975E-05  9.99999975E-05       0.00501187       0.00501187       0.00501187       0.00501187       0.00501187  9.99999975E-05  9.99999975E-05  9.99999975E-05  9.99999975E-05  9.99999975E-05  9.99999975E-05  9.99999975E-05  9.99999975E-05  9.99999975E-05  9.99999975E-05  9.99999975E-05  9.99999975E-05  9.99999975E-05  9.99999975E-05  9.99999975E-05  9.99999975E-05  9.99999975E-05  9.99999975E-05  9.99999975E-05  9.99999975E-05  9.99999975E-05  9.99999975E-05  9.99999975E-05
      9.99999975E-05  9.99999975E-05  9.99999975E-05  9.99999975E-05  9.99999975E-05  9.99999975E-05  9.99999975E-05  9.99999975E-05  9.99999975E-05  9.99999975E-05  9.99999975E-05  9.99999975E-05  9.99999975E-05  9.99999975E-05  9.99999975E-05  9.99999975E-05  9.99999975E-05  9.99999975E-05  9.99999975E-05  9.99999975E-05  9.99999975E-05  9.99999975E-05  9.99999975E-05  9.99999975E-05  9.99999975E-05  9.99999975E-05  9.99999975E-05  9.99999975E-05  9.99999975E-05  9.99999975E-05  9.99999975E-05  9.99999975E-05  9.99999975E-05  9.99999975E-05  9.99999975E-05  9.99999975E-05  9.99999975E-05  9.99999975E-05  9.99999975E-05  9.99999975E-05  9.99999975E-05  9.99999975E-05  9.99999975E-05  9.99999975E-05  9.99999975E-05  9.99999975E-05  9.99999975E-05  9.99999975E-05  9.99999975E-05  9.99999975E-05  9.99999975E-05  9.99999975E-05  9.99999975E-05  9.99999975E-05  9.99999975E-05  9.99999975E-05  9.99999975E-05  9.99999975E-05  9.99999975E-05  9.99999975E-05  9.99999975E-05  9.99999975E-05  9.99999975E-05  9.99999975E-05  9.99999975E-05  9.99999975E-05  9.99999975E-05  9.99999975E-05  9.99999975E-05  9.99999975E-05  9.99999975E-05  9.99999975E-05       0.00501187       0.00501187       0.00501187       0.00501187       0.00501187  9.99999975E-05  9.99999975E-05  9.99999975E-05  9.99999975E-05  9.99999975E-05  9.99999975E-05  9.99999975E-05  9.99999975E-05  9.99999975E-05  9.99999975E-05  9.99999975E-05  9.99999975E-05  9.99999975E-05  9.99999975E-05  9.99999975E-05  9.99999975E-05  9.99999975E-05  9.99999975E-05  9.99999975E-05  9.99999975E-05  9.99999975E-05  9.99999975E-05  9.99999975E-05