# File generated by Flopy version 3.9.5 on 11/03/2025 at 10:10:57.
BEGIN options
  SAVE_FLOWS
  DENSITY_WATER    1000.00000000
  HEAT_CAPACITY_WATER    4186.00000000
  LATENT_HEAT_VAPORIZATION  2.26000000E+06
END options

BEGIN griddata
  porosity
    INTERNAL  FACTOR  1.0
         0.16561583       0.13598821       0.16366886       0.17787865       0.21959579       0.19281852       0.19069484       0.16778837       0.16284432       0.19735718       0.26240960       0.34727746       0.40000001       0.40000001       0.39687455       0.30149889       0.23308496       0.18393821       0.12532540       0.09754406       0.06132550       0.03682212       0.02901500       0.08006732       0.13515161       0.22053570       0.30021355       0.37875596       0.39998996       0.38877901       0.33698961       0.27979231       0.24247032       0.28831869       0.36588806       0.34207124       0.28346008       0.25273195       0.20468795       0.18237625       0.16036886       0.13644977       0.12245814       0.13264413       0.20802720       0.23690221       0.27341184       0.28724247       0.29431489       0.27023596       0.28960168       0.30041796       0.31647027       0.29940954       0.29888394       0.29218337       0.28439611       0.28146070       0.28403971       0.29038146       0.29270235       0.31244677       0.31238118       0.29002190       0.25032204       0.17363603       0.14828390       0.14838164       0.18268096       0.24858721       0.30823544       0.31046018       0.28523430       0.25857288       0.20703371       0.19500820       0.16201407       0.12308934       0.08785710       0.04132560       0.01586289       0.02116955       0.08366589       0.16677542       0.23016936       0.26436925       0.26604089       0.25776383       0.27471843       0.25663552       0.21964531       0.20417549       0.18969031       0.19225632       0.17804587       0.19867601       0.23796807       0.27548355       0.28942654       0.28666562
         0.19709279       0.16792780       0.20369045       0.21345934       0.24411356       0.23113772       0.21927862       0.18437706       0.17521426       0.17316037       0.22164634       0.29315943       0.36990839       0.40000001       0.38877031       0.31279784       0.23505808       0.17717278       0.12419602       0.07019460       0.05180337       0.01996107       0.03088002       0.05578122       0.10669193       0.17915094       0.27150184       0.35342765       0.36938941       0.37648836       0.32808167       0.29215664       0.27306238       0.31823412       0.36894205       0.35595274       0.30017656       0.25357002       0.24863032       0.20310326       0.16874568       0.13532284       0.13489753       0.17879270       0.22185427       0.25036728       0.27335107       0.27175260       0.28187642       0.26871869       0.30112901       0.30747187       0.30913183       0.31135172       0.29363874       0.29364645       0.29698619       0.29447731       0.28470683       0.29594815       0.32990283       0.35153455       0.36127558       0.34396884       0.28596160       0.21507923       0.13442254       0.11419047       0.14294079       0.21188498       0.27079132       0.28464639       0.25381991       0.23205921       0.20682608       0.15349506       0.14501943       0.12632662       0.09267492       0.06603637       0.06992098       0.08550023       0.14393899       0.21773192       0.27289388       0.29173917       0.27848479       0.26541293       0.23717034       0.18584718       0.16837001       0.16882329       0.15372537       0.15648535       0.14302200       0.17670067       0.23478572       0.26934189       0.30964422       0.30539641
         0.19401735       0.17977269       0.22721002       0.23590742       0.24425872       0.22817813       0.20251168       0.19350153       0.18654691       0.16434704       0.18838337       0.24748328       0.30406591       0.32919648       0.32578516       0.28685153       0.23480329       0.18061881       0.11308277       0.07459696       0.05099944       0.01427105       0.03526747       0.06143335       0.12561087       0.19521356       0.25956559       0.29702586       0.32243565       0.34609658       0.29660842       0.27910161       0.27881619       0.30191356       0.31510526       0.30829775       0.28922305       0.27614892       0.25215343       0.24113530       0.22306347       0.16440171       0.17592505       0.21831509       0.22460955       0.26140159       0.24620661       0.25770581       0.25761575       0.25436166       0.25858825       0.27807358       0.28157771       0.30239445       0.30560923       0.28645459       0.28703609       0.28630888       0.28118587       0.30760714       0.33169663       0.35858944       0.37487727       0.35851038       0.32051316       0.24036165       0.13013786       0.06338846       0.09744671       0.15463518       0.21628319       0.23676291       0.21884660       0.19267818       0.14360826       0.12821485       0.14348634       0.14966837       0.11085003       0.09754299       0.11452448       0.14591704       0.20786786       0.27172855       0.29660764       0.30758661       0.30066213       0.27097413       0.22577943       0.17888141       0.16841786       0.15914017       0.14246924       0.13377580       0.12302270       0.15045902       0.21486685       0.27542758       0.31821552       0.29202771
         0.19443612       0.17885667       0.22277819       0.26565152       0.27115670       0.27467528       0.23692542       0.21953222       0.22529882       0.20969129       0.17434455       0.21944718       0.25466415       0.26130265       0.25543949       0.24956357       0.24200054       0.19879305       0.14715424       0.10999741       0.06562158       0.04253023       0.02053390       0.06889816       0.12413916       0.16921884       0.20749882       0.24817039       0.28109625       0.30508655       0.25933748       0.27471432       0.26344413       0.27922156       0.29196703       0.29188642       0.28597176       0.29907909       0.28137386       0.28832200       0.26478922       0.23304218       0.20658948       0.21639879       0.24605481       0.24411809       0.21987900       0.24965560       0.23878784       0.22965451       0.24915938       0.24512011       0.26477036       0.26376277       0.28482297       0.27507502       0.28531367       0.28078049       0.28374797       0.28791791       0.29160535       0.32689929       0.33412164       0.32449564       0.27835500       0.18182506       0.08667189       0.20274198       0.03548630       0.09282409       0.15405659       0.16667885       0.16878673       0.14888184       0.13030082       0.13175258       0.14584586       0.16209212       0.15641743       0.19279349       0.21624419       0.20558977       0.25585383       0.31345707       0.34944290       0.35027841       0.32716289       0.26155606       0.20353578       0.16568959       0.16597377       0.18048285       0.14125395       0.12037894       0.10403422       0.12927440       0.18971965       0.25595021       0.31375951       0.29483762
         0.19040065       0.18480581       0.22776677       0.25179598       0.26222914       0.27157485       0.24509057       0.22670540       0.22357920       0.22920784       0.19253035       0.20982425       0.20433359       0.22008550       0.19810271       0.19159743       0.21357885       0.20390961       0.17501554       0.15401223       0.09402923       0.06135370       0.02077409       0.04719618       0.12797324       0.15093362       0.16184473       0.20563196       0.22453682       0.26412141       0.24075900       0.22293438       0.23629574       0.25537676       0.27978334       0.30085960       0.30187079       0.30290541       0.32438278       0.32908642       0.31610370       0.26370069       0.23737258       0.25373024       0.26404953       0.23218250       0.18729541       0.20452936       0.20982233       0.20448104       0.23197658       0.24918532       0.23097436       0.22868764       0.22830456       0.25661916       0.28245348       0.27989215       0.28180879       0.27068925       0.26734468       0.27652156       0.27922475       0.24855477       0.21254697       0.13016413       0.20274198       0.20274198       0.01645103       0.03352027       0.07095842       0.10951259       0.11681604       0.13883255       0.16588040       0.20031373       0.21178131       0.20913859       0.24522138       0.28349993       0.31570444       0.30624697       0.32706097       0.34647721       0.37587747       0.36857945       0.33770886       0.25809747       0.20266728       0.16571860       0.14735131       0.15753746       0.13198511       0.10874335       0.09394867       0.13414699       0.19155814       0.25655422       0.30592865       0.28529924
         0.21254639       0.19435707       0.19755593       0.23583163       0.26567191       0.26299998       0.24212597       0.23881674       0.25202513       0.23629467       0.20953918       0.19830510       0.18052471       0.17699625       0.16919692       0.16214004       0.19362529       0.21181473       0.21368361       0.17526947       0.11141443       0.05289964       0.04798819       0.07631087       0.11843151       0.12392931       0.14431858       0.16382359       0.20731059       0.22694993       0.20989047       0.18363297       0.19205771       0.24871865       0.25849313       0.27714929       0.28170678       0.28362167       0.32512140       0.33441490       0.35844910       0.31061757       0.29844385       0.31115508       0.30430949       0.26124081       0.21747932       0.18876797       0.21932547       0.24784438       0.25077289       0.24516396       0.23951167       0.21827263       0.23392782       0.23750034       0.25462839       0.27731642       0.24882177       0.22944190       0.20374031       0.20923777       0.20029266       0.17509882       0.14008588       0.20274198       0.20274198       0.20274198       0.20274198       0.01594699       0.03959007       0.06429590       0.08892772       0.13900687       0.20458341       0.24820049       0.27035242       0.30336541       0.31321877       0.35863256       0.37875482       0.35186613       0.36043176       0.38713297       0.39237738       0.35819936       0.31096682       0.23967145       0.18413471       0.14569454       0.11046392       0.13041674       0.14154251       0.11515511       0.09926635       0.12394363       0.18587042       0.25553453       0.28680173       0.28663504
         0.20304766       0.18549711       0.17669368       0.19981727       0.22983825       0.23068801       0.23317866       0.24349876       0.24480301       0.23144414       0.19524227       0.19001524       0.16411121       0.16167617       0.13930812       0.13139921       0.17787236       0.20590670       0.22302528       0.19098784       0.14615682       0.10978167       0.09300360       0.10930331       0.12763162       0.10646072       0.10731839       0.16487798       0.21013543       0.22506309       0.17512992       0.15473621       0.15527149       0.20512119       0.23710935       0.25880080       0.29436621       0.31498197       0.33136594       0.33783364       0.38361871       0.37322393       0.35157630       0.35905877       0.34693879       0.31982538       0.27933219       0.23019727       0.24873826       0.26764730       0.27410525       0.26933315       0.24647760       0.21787441       0.19517267       0.20567405       0.22250359       0.24148770       0.23004448       0.18302381       0.12568288       0.12548196       0.13237537       0.14238533       0.13777065       0.20274198       0.20274198       0.20274198       0.20274198       0.03128996       0.03541660       0.08376317       0.11182330       0.16059929       0.22319219       0.28427398       0.33808300       0.37195069       0.38121095       0.39543119       0.40000001       0.37194553       0.34140661       0.36329940       0.35153389       0.30357829       0.25507045       0.18724459       0.14114918       0.07827332       0.03998376       0.08428182       0.12744935       0.13458474       0.10730424       0.15145794       0.22343783       0.26917669       0.27620164       0.27150437
         0.21302940       0.18928277       0.19721334       0.18822452       0.18637776       0.20797524       0.23090956       0.23108278       0.23005420       0.19917241       0.17210989       0.15897730       0.13572110       0.14930987       0.12028112       0.12100216       0.16364756       0.19924301       0.19925505       0.18611258       0.18346183       0.15784109       0.13972193       0.12766251       0.14288281       0.12671076       0.09758532       0.15126912       0.20261112       0.19061640       0.15187821       0.12711556       0.13123822       0.17085308       0.21922293       0.24481690       0.29103845       0.32875875       0.35024732       0.36313167       0.37945318       0.39373532       0.40000001       0.40000001       0.37778711       0.34677449       0.33086169       0.29455835       0.30374622       0.28605974       0.29951519       0.29803118       0.27064815       0.24585456       0.21371056       0.17576268       0.16756371       0.16823983       0.14522505       0.08374730       0.02471495       0.03229949       0.07469808       0.10157667       0.12787688       0.20274198       0.20274198       0.20274198       0.20274198       0.05628020       0.07066285       0.12405601       0.16457002       0.20940919       0.25569710       0.31357363       0.36026302       0.38578892       0.36655292       0.39322102       0.40000001       0.38477501       0.36390767       0.35470265       0.32373518       0.26178557       0.19927192       0.13334806       0.07744358       0.02661156  5.11983933E-04       0.02413229       0.07652455       0.12279142       0.15382379       0.16920094       0.21356754       0.26872399       0.28803968       0.26720586
         0.22301343       0.20660521       0.20555525       0.17977099       0.13989455       0.14433973       0.16375218       0.17583007       0.20872620       0.18779621       0.16091177       0.16217570       0.15162624       0.12878479       0.09956782       0.10125335       0.13606706       0.18968472       0.19009487       0.20578317       0.21977021       0.21437457       0.19588009       0.16034628       0.13298565       0.12714829       0.09262385       0.11041301       0.15235417       0.16444764       0.13427848       0.11522994       0.11401716       0.14703892       0.18911704       0.23758468       0.27651864       0.29334992       0.30274427       0.32686728       0.35869390       0.39379320       0.40000001       0.40000001       0.38799563       0.39046487       0.35750553       0.32375273       0.33915973       0.31431603       0.31859082       0.33283600       0.32061902       0.27923366       0.21605349       0.16040367       0.12117814       0.07417626       0.05351454       0.00887263       0.00000000       0.01123083       0.03859774       0.05997053       0.08953464       0.20274198       0.20274198       0.20274198       0.11123051       0.11464712       0.12737553       0.16911939       0.21724351       0.26680070       0.28765368       0.33613968       0.36007941       0.33515626       0.31666300       0.34445655       0.35604909       0.37035713       0.37982535       0.35623699       0.26946115       0.18868047       0.11155628       0.07039890       0.00525788       0.00000000       0.00000000       0.02995222       0.08144266       0.13110857       0.16942604       0.16450369       0.19890957       0.23692147       0.25695008       0.25507843
         0.23540774       0.21760669       0.21134388       0.17655228       0.13578656       0.11974013       0.12176205       0.17287531       0.20069301       0.17789611       0.16754760       0.17760420       0.17513044       0.15191500       0.13061731       0.12237155       0.14288376       0.17411891       0.19278145       0.21560936       0.22291629       0.22107778       0.20544386       0.16813682       0.12461596       0.09128147       0.07978522       0.08714706       0.11371273       0.13421535       0.12975617       0.11007434       0.10957251       0.15090212       0.16904444       0.21432683       0.24984252       0.28273237       0.30863696       0.30605310       0.32789999       0.35789901       0.38470668       0.38871482       0.38300192       0.38899767       0.35968000       0.36213326       0.33711985       0.32869041       0.34517980       0.32765645       0.32991314       0.30954498       0.26203448       0.19243428       0.14657471       0.08904035       0.03741102       0.00000000       0.00000000  4.82285948E-04       0.02527035       0.04764543       0.06524234       0.06757526       0.20274198       0.09990872       0.13702656       0.15988374       0.19067416       0.23818453       0.26481655       0.29413301       0.30359587       0.32126033       0.30732343       0.27493587       0.24176179       0.26537681       0.30985039       0.33935618       0.34460929       0.31118858       0.23458864       0.12986878       0.07261692       0.00607198       0.00000000       0.00000000       0.00000000       0.01728545       0.06941112       0.14984797       0.18373881       0.17283845       0.18185146       0.19107699       0.22157912       0.20785244
         0.24406436       0.22550856       0.22889876       0.18583071       0.15889850       0.12078603       0.09431668       0.12389168       0.17129858       0.18204327       0.18843985       0.18322662       0.18273285       0.15961476       0.15386046       0.14958335       0.16007802       0.17079496       0.20225912       0.20639358       0.22681248       0.21323806       0.18308339       0.14518408       0.07897481       0.05303802       0.06177674       0.06878886       0.09391552       0.12092077       0.12800668       0.10304980       0.10395601       0.11872696       0.15555826       0.16812423       0.22287211       0.25000471       0.28619075       0.29266223       0.30045772       0.32383469       0.35699028       0.36126339       0.35982963       0.36130136       0.36390963       0.36625093       0.34069356       0.32982865       0.34972936       0.34806341       0.35191178       0.32764989       0.29287049       0.23008023       0.15497057       0.08631043       0.01844410       0.00000000       0.00000000       0.03481793       0.04874545       0.07137400       0.03946147       0.02904295       0.05750506       0.11685416       0.16635600       0.22201683       0.30008787       0.31552598       0.30080274       0.31489941       0.30086136       0.29418266       0.20274198       0.20274198       0.20274198       0.19620484       0.25538376       0.28888187       0.28032115       0.24083447       0.18762411       0.11813365       0.04255033       0.00309172  1.28110638E-04       0.01581762       0.01698098       0.04888588       0.08590410       0.14334865       0.16193821       0.15903950       0.14762799       0.14684214       0.17104800       0.14559461
         0.25086626       0.21285900       0.20964396       0.19414896       0.17422774       0.11839662       0.06027746       0.09508482       0.14118508       0.15638450       0.16640259       0.16811307       0.18455873       0.19664966       0.20958240       0.20163393       0.19719630       0.19214535       0.23988156       0.23599415       0.21150309       0.20231098       0.16624466       0.11575577       0.04337044       0.03981205       0.04718201       0.04644355       0.04863435       0.07288660       0.07178842       0.06021546       0.07803170       0.10076141       0.10160019       0.13189861       0.18290064       0.21877548       0.26319242       0.25405517       0.27624032       0.27534524       0.30324876       0.31600335       0.33985001       0.33247739       0.31121585       0.31963542       0.31951830       0.33333483       0.36390120       0.35800630       0.34999526       0.34962392       0.30189773       0.24512212       0.15483582       0.08892985       0.03381957       0.01823067       0.02233850       0.06757753       0.11553720       0.10734428       0.05857728       0.03328861       0.06393708       0.12260833       0.18501736       0.27919906       0.36244917       0.36747131       0.33440080       0.31025746       0.27901435       0.20274198       0.20274198       0.20274198       0.20274198       0.20274198       0.12569526       0.16753839       0.18750605       0.16377957       0.17424181       0.14280179       0.05606176       0.03445376       0.02522627       0.05282575       0.07925091       0.09445038       0.09647271       0.12937336       0.14912808       0.15767772       0.13773267       0.13474940       0.14472911       0.10882163
         0.25696805       0.21008062       0.18552169       0.18401542       0.15668708       0.12570705       0.09154105       0.09956050       0.12448688       0.14048408       0.14836499       0.15212727       0.18775512       0.19694340       0.21150713       0.22787413       0.23548225       0.22473317       0.24436919       0.22658852       0.18934534       0.16666961       0.12435705       0.07773349       0.04039514       0.02774575       0.05107337       0.06124111       0.05331738       0.05205481       0.06568742       0.04939292       0.07129504       0.10326363       0.11100610       0.14209914       0.16982208       0.20009169       0.22679357       0.22570617       0.22437282       0.20972641       0.23638114       0.26883000       0.30274111       0.29696539       0.27092057       0.27025247       0.30420020       0.34099874       0.37683350       0.38960931       0.34372395       0.33044079       0.32084271       0.27169511       0.19258972       0.13134798       0.08784743       0.06317321       0.07579943       0.11696146       0.18948676       0.19215252       0.15178147       0.08792505       0.10018034       0.16959466       0.25881338       0.35682303       0.40000001       0.40000001       0.39293480       0.35028154       0.20274198       0.20274198       0.20274198       0.20274198       0.00000000       0.01607726       0.01726838       0.07649627       0.11650842       0.13751858       0.16644520       0.15847756       0.14420234       0.10962543       0.09743869       0.11673374       0.11527662       0.11104907       0.10310345       0.11019057       0.13583188       0.17093229       0.16956536       0.15268682       0.12096846       0.09696692
         0.19849049       0.17596586       0.15292287       0.13768369       0.12253102       0.09698037       0.07980045       0.10623263       0.11917158       0.12055047       0.14173573       0.16076756       0.18775964       0.19322628       0.20899661       0.24182813       0.23531009       0.23902924       0.24705993       0.21499550       0.17398296       0.14045818       0.10495126       0.06630858       0.04416116       0.02402324       0.06745636       0.08758160       0.07727467       0.05626217       0.04467744       0.04282172       0.07960939       0.10472009       0.13096160       0.15352271       0.17597765       0.20080777       0.22457309       0.20934598       0.16956937       0.14901595       0.17806523       0.22063228       0.23839840       0.26679438       0.22324498       0.23167443       0.27226976       0.35133594       0.40000001       0.38777232       0.33417171       0.30241293       0.29979697       0.27027157       0.21154234       0.17323348       0.15468422       0.12832154       0.14224890       0.21399803       0.27830845       0.28407481       0.24554759       0.17624922       0.19167092       0.22910288       0.32594973       0.40000001       0.40000001       0.40000001       0.40000001       0.20274198       0.20274198       0.20274198       0.20274198       0.20274198       0.00000000       0.00000000       0.00000000       0.01400879       0.06506398       0.10249235       0.16759694       0.22248386       0.24950549       0.22556177       0.18707843       0.19051144       0.19836006       0.17026962       0.14310774       0.13134870       0.13766795       0.19521932       0.17602801       0.14021742       0.12771727       0.10705782
         0.16342925       0.12844718       0.13298684       0.11542252       0.09507655       0.07028760       0.08754228       0.08646895       0.11708681       0.12184175       0.13855179       0.16743717       0.17604588       0.18528374       0.21225183       0.22618331       0.21496250       0.22844720       0.22771396       0.20094353       0.15115517       0.12099241       0.06451728       0.04007725       0.02764302       0.04348441       0.06273266       0.11382399       0.12894031       0.09923818       0.08455934       0.06837767       0.10748080       0.13750441       0.15127485       0.17065954       0.17203182       0.20144433       0.21504386       0.17827082       0.14131472       0.13713640       0.14661673       0.19131747       0.21446392       0.23671362       0.19394906       0.21430530       0.26621208       0.33547932       0.38172722       0.36360386       0.31623793       0.29626283       0.29065919       0.27147546       0.23945904       0.19512159       0.17258964       0.18473816       0.20608369       0.27901614       0.34177980       0.20274198       0.20274198       0.27545848       0.27279955       0.30554691       0.37204707       0.40000001       0.40000001       0.40000001       0.20274198       0.20274198       0.20274198       0.20274198       0.20274198       0.20274198       0.04337863       0.01095069       0.00000000  6.69887930E-04       0.04213856       0.09075595       0.19389534       0.27187511       0.29554123       0.28467697       0.24557492       0.23711127       0.21943417       0.20601021       0.17082532       0.14821793       0.12690552       0.17796670       0.14688532       0.11584575       0.11080997       0.10571224
         0.16160546       0.14180373       0.14024076       0.10871585       0.08967953       0.06379151       0.05999816       0.08554301       0.10394083       0.13041703       0.15404820       0.16470207       0.15846242       0.19509129       0.23098929       0.24758965       0.23016095       0.22551186       0.17527792       0.18721783       0.17659171       0.14840116       0.08814797       0.04261444       0.03302359       0.06522841       0.11699399       0.14565842       0.14288607       0.11372508       0.12063016       0.09699654       0.13196300       0.16615790       0.15143441       0.18500677       0.17325193       0.19909531       0.18539503       0.17588842       0.14826912       0.13538648       0.15233241       0.20673269       0.20822507       0.20796087       0.19658002       0.18512698       0.23260111       0.29107165       0.33508486       0.32701916       0.30652100       0.30278552       0.29224631       0.27812481       0.23610969       0.19549532       0.18463056       0.20823157       0.22815372       0.27860960       0.20274198       0.20274198       0.20274198       0.20274198       0.31754410       0.36209413       0.39504266       0.40000001       0.40000001       0.20274198       0.20274198       0.20274198       0.20274198       0.20274198       0.20274198       0.20274198       0.11375995       0.08075675       0.04296844       0.02578911       0.04990382       0.12034138       0.22860111       0.31316188       0.31841058       0.32210785       0.27895290       0.25150117       0.23802127       0.20320345       0.16246083       0.14405552       0.12226933       0.14533927       0.12449744       0.09581220       0.09044772       0.08257008
         0.18041173       0.17894226       0.16903248       0.10901587       0.07398357       0.05833071       0.08338912       0.13193554       0.16194706       0.15375924       0.16971794       0.18966433       0.19526565       0.21925955       0.25647333       0.28639993       0.26536438       0.23986904       0.21425271       0.21868044       0.21634343       0.18430908       0.11977524       0.07411101       0.07115805       0.11238286       0.16600129       0.18363990       0.16191196       0.15338737       0.14351991       0.14527842       0.15455420       0.15807666       0.15012340       0.16321279       0.16769198       0.18524140       0.19515303       0.15474188       0.12072484       0.12484576       0.16792998       0.22522828       0.21113750       0.17474017       0.16140041       0.15559784       0.19994497       0.25584444       0.29054996       0.27710170       0.25683370       0.27770153       0.27843198       0.28384349       0.24458590       0.18966454       0.18256995       0.19278064       0.23271625       0.26854783       0.20274198       0.20274198       0.20274198       0.20274198       0.32816562       0.33892167       0.36986494       0.40000001       0.40000001       0.20274198       0.20274198       0.20274198       0.20274198       0.20274198       0.20274198       0.20274198       0.17207763       0.11881153       0.08565827       0.05935213       0.10007912       0.17339996       0.26567692       0.33941981       0.32302400       0.33191165       0.29186124       0.25511289       0.21661241       0.19916543       0.16109289       0.11349903       0.10677721       0.10971557       0.11713123       0.09969898       0.05931094       0.04459375