# File generated by Flopy version 3.9.1 on 04/22/2025 at 12:06:26.
BEGIN options
END options

BEGIN griddata
  alh
    CONSTANT      10.00000000
  ath1
    CONSTANT       1.00000000
  ktw
    CONSTANT       0.56000000
  kts
    CONSTANT       2.50000000
END griddata

