# File generated by Flopy version 3.9.1 on 06/09/2025 at 12:54:55.
BEGIN options
  BUDGET  FILEOUT  gwe-sim_test.cbc
  TEMPERATURE  FILEOUT  gwe-sim_test.ucn
END options

BEGIN period  1
  SAVE  TEMPERATURE  ALL
  SAVE  BUDGET  ALL
  PRINT  BUDGET  LAST
END period  1

