# File generated by Flopy version 3.9.5 on 12/11/2025 at 15:17:39.
BEGIN options
  BUDGET  FILEOUT  gwe-sim_test.cbc
  TEMPERATURE  FILEOUT  gwe-sim_test.ucn
END options

BEGIN period  1
  SAVE  TEMPERATURE  ALL
  SAVE  BUDGET  ALL
  PRINT  BUDGET  LAST
END period  1

