# File generated by Flopy version 3.9.3 on 09/16/2025 at 10:13:07.
BEGIN options
  SCHEME  tvd
END options

