# File generated by Flopy version 3.9.1 on 04/22/2025 at 12:10:40.
BEGIN options
END options

BEGIN packages
  FMI6  gwe-sim_test.fmi  fmi
  OC6  gwe-sim_test.oc  oc
  EST6  gwe-sim_test.est  est
  ADV6  gwe-sim_test.adv  adv
  IC6  gwe-sim_test.ic  ic
  DISV6  gwe-sim_test.disv  disv
  CND6  gwe-sim_test.cnd  cnd
  SSM6  gwe-sim_test.ssm  ssm
END packages

