# File generated by Flopy version 3.9.3 on 07/23/2025 at 15:52:26.
BEGIN options
END options

BEGIN packages
  FMI6  gwe-sim_test.fmi  fmi
  OC6  gwe-sim_test.oc  oc
  EST6  gwe-sim_test.est  est
  ADV6  gwe-sim_test.adv  adv
  IC6  gwe-sim_test.ic  ic
  DIS6  gwe-sim_test.dis  dis
  CND6  gwe-sim_test.cnd  cnd
  SSM6  gwe-sim_test.ssm  ssm
END packages

