# File generated by Flopy version 3.9.3 on 07/23/2025 at 15:52:26.
BEGIN options
  BUDGET  FILEOUT  gwe-sim_test.cbc
  TEMPERATURE  FILEOUT  gwe-sim_test.ucn
END options

BEGIN period  1
  SAVE  TEMPERATURE  ALL
  SAVE  BUDGET  ALL
  PRINT  BUDGET  LAST
END period  1

