# File generated by Flopy version 3.9.3 on 09/16/2025 at 10:13:07.
BEGIN options
  SAVE_FLOWS
END options

BEGIN sources
  CHD-1  AUX  TEMPERATURE
  CHD-2  AUX  TEMPERATURE
  WEL-INJ  AUX  TEMPERATURE
END sources

