# File generated by Flopy version 3.9.3 on 10/06/2025 at 15:29:42.
BEGIN options
END options

BEGIN griddata
  alh
    CONSTANT       5.00000000
  alv
    CONSTANT       1.00000000
  ath1
    CONSTANT       1.00000000
  ktw
    CONSTANT       0.56000000
  kts
    CONSTANT       2.50000000
END griddata

