# File generated by Flopy version 3.9.3 on 07/23/2025 at 15:52:26.
BEGIN options
END options

BEGIN griddata
  strt
    CONSTANT      10.00000000
END griddata

