# File generated by Flopy version 3.9.3 on 07/23/2025 at 15:52:26.
BEGIN options
END options

BEGIN packagedata
  GWFHEAD  FILEIN  ../test.hds
  GWFBUDGET  FILEIN  ../test.cbc
END packagedata

