# File generated by Flopy version 3.9.1 on 06/09/2025 at 12:54:55.
BEGIN options
  SAVE_FLOWS
END options

BEGIN sources
  CHD  AUX  TEMPERATURE
  WEL-INJ  AUX  TEMPERATURE
END sources

