# File generated by Flopy version 3.9.5 on 11/03/2025 at 10:10:57.
BEGIN options
  SCHEME  tvd
END options

