# File generated by Flopy version 3.9.3 on 10/06/2025 at 15:29:42.
BEGIN options
  SAVE_FLOWS
  DENSITY_WATER    1000.00000000
  HEAT_CAPACITY_WATER    4186.00000000
  LATENT_HEAT_VAPORIZATION  2.26000000E+06
END options

BEGIN griddata
  porosity
    INTERNAL  FACTOR  1.0
         0.10665921       0.08091311       0.09464831       0.15146519       0.21988178       0.23532067       0.18679830       0.16092662       0.28367950       0.27756957       0.30875312       0.29313390       0.21952393       0.12348666       0.14348030       0.20241118       0.21985494       0.19520899       0.21133109       0.17959818
         0.17448640       0.17538653       0.25699572       0.30265364       0.23201386       0.14117593       0.11670764       0.15646974       0.18928619       0.26380783       0.21840576       0.21496129       0.21146427       0.25273574       0.26282073       0.24064008       0.19457544       0.10592423       0.10311801       0.17725169
         0.14256134       0.19383360       0.24171535       0.17987902       0.16246788       0.15162818       0.28644377       0.26816442       0.22984125       0.18919690       0.11358667       0.19509731       0.14540680       0.19405178       0.22784224       0.14731083       0.16342226       0.17452276       0.20954759       0.20378801
         0.18932617       0.13250545       0.13262336       0.17002248       0.11954909       0.20634545       0.18468899       0.11322952       0.15578037       0.19809095       0.29626565       0.22234785       0.15049013       0.10881465       0.12786292       0.27092773       0.16569979       0.16543124       0.18042542       0.20560246
         0.17903697       0.12301358       0.14259125       0.18947085       0.15226508       0.17043783       0.13779312       0.16418596       0.16077387       0.21617825       0.19444608       0.15550378       0.19233468       0.14845210       0.25378097       0.20133016       0.07739008       0.05704037       0.11834771       0.22107419
         0.20074385       0.21153269       0.31603966       0.23004445       0.18587514       0.12967328       0.17716438       0.23114997       0.18598099       0.17087838       0.15694527       0.13310589       0.18312729       0.19876857       0.21709805       0.16414382       0.15062260       0.19029885       0.25291694       0.17008019
         0.08958850       0.10482679       0.14532986       0.19669106       0.17906085       0.20714067       0.22283617       0.14043453       0.17038123       0.20568429       0.19954017       0.19078131       0.20141837       0.16954971       0.12986523       0.03345085       0.10632324       0.19560585       0.20540129       0.17450065
         0.16262169       0.19953598       0.24704660       0.17892674       0.16263182       0.15562436       0.15505489       0.13259328       0.21467067       0.21836914       0.16106466       0.16992789       0.20194246       0.16350055       0.14143591       0.17635985       0.21330799       0.18872009       0.19905539       0.08068568
         0.11359319       0.22310239       0.21966421       0.13931634       0.12519715       0.17551474       0.12080763       0.14827133       0.20688411       0.12616051       0.11128194       0.16281436       0.30446052       0.24534422       0.16169898       0.21183504       0.18516892       0.18463549       0.17951428       0.22035314
         0.15040139       0.09870512       0.18122824       0.12152519       0.11041869       0.14054810       0.14146005       0.16319778       0.19674510       0.24012791       0.21927001       0.19483466       0.18751194       0.16618455       0.26528196       0.25105448       0.10821193       0.11120764       0.17740655       0.13200993
         0.11127639       0.22162686       0.16156688       0.11009120       0.20014308       0.33240286       0.25708624       0.14537083       0.18308266       0.17306528       0.15565904       0.15827667       0.18720022       0.21614512       0.16890722       0.17887742       0.24821279       0.27033319       0.20943956       0.23586852
         0.10023146       0.14272403       0.20164913       0.08064767       0.18260320       0.24105359       0.21052375       0.24884704       0.21933665       0.17074609       0.15008659       0.18950055       0.16654464       0.21483468       0.20324728       0.20623568       0.18780936       0.18541275       0.17162226       0.17533872
         0.17194735       0.16400224       0.19341574       0.17847270       0.19462637       0.19142023       0.17761995       0.17226242       0.16062492       0.14687548       0.14528062       0.13393868       0.14080048       0.09049697       0.20058312       0.19912342       0.13868782       0.15592690       0.06790580       0.07156590
         0.14602526       0.17761582       0.10214701       0.14695118       0.24268435       0.27462866       0.22284179       0.23762136       0.19972207       0.22716988       0.25065921       0.27200364       0.22734716       0.24378890       0.23380785       0.19128054       0.25525908       0.24460903       0.24001730       0.24925396
         0.21671494       0.20257080       0.22470610       0.20498107       0.17402676       0.17848694       0.18799418       0.17749342       0.19255713       0.18190479       0.18324118       0.19412629       0.17579243       0.18193041       0.19587730       0.17041816       0.19656220       0.19044801       0.18491625       0.18350682
         0.17019909       0.16207966       0.16749748       0.16009570       0.18056889       0.18969097       0.17976638       0.20488788       0.18190670       0.20600862       0.19749366       0.23493454       0.23674765       0.14789179       0.14232408       0.16724593       0.18442003       0.19851233       0.16735851       0.17093055
         0.18338390       0.26540672       0.36717388       0.29515741       0.15712835       0.13515791       0.09346608       0.10441451       0.10444011       0.10166446       0.15965428       0.20939782       0.14102962       0.22929663       0.15802407       0.11286624       0.08007298       0.10044927       0.07581444       0.20635754
         0.12614377       0.03769822       0.03408336       0.08765479       0.08683242       0.07057795       0.11771643       0.07363983       0.08172690       0.15788408       0.10709490       0.15608752       0.20893476       0.13604912       0.16291714       0.23016429       0.22385141       0.21919043       0.22256464       0.15399010
         0.20398438       0.17329713       0.20862743       0.21073164       0.23098375       0.21037706       0.22079764       0.22891323       0.24398049       0.23949074       0.23712913       0.22685906       0.21606771       0.22768523       0.22367068       0.24927872       0.23894132       0.23973309       0.23800367       0.23135020
         0.22445285       0.22873395       0.21505759       0.20096974       0.18868431       0.20991080       0.19125840       0.17480166       0.17232355       0.17207286       0.16591278       0.21695343       0.19593361       0.21449496       0.20467760       0.17347516       0.16534091       0.17669794       0.16489622       0.16699529
         0.16648202       0.15775577       0.15266545       0.15557897       0.15322354       0.15257767       0.14447181       0.15679093       0.15051121       0.16146315       0.15405229       0.15520259       0.14624790       0.15129731       0.14492075       0.16684224       0.19022786       0.15449811       0.17426399       0.18129704
         0.12944827       0.13360509       0.17576292       0.19860279       0.18040701       0.17265968       0.17144221       0.21635626       0.28179582       0.11673853       0.21894816       0.19388264       0.24898419       0.34358700       0.34810756       0.21884612       0.14153487       0.12735412       0.22165844       0.25716675
         0.21613230       0.19800962       0.21360139       0.23083323       0.20464345       0.22951925       0.21065718       0.21291415       0.21407731       0.20940952       0.20586791       0.21025165       0.20611256       0.18731565       0.17341515       0.19216431       0.18177602       0.21161630       0.19800109       0.17051179
         0.15434246       0.17118294       0.15125273       0.12528177       0.12872530       0.09728865       0.08652167       0.16420447       0.10158897       0.08937868       0.10314391       0.05549948       0.05867021       0.14047393       0.21373004       0.20280472       0.24029051       0.17539457       0.16258702       0.22975473
         0.11046432       0.24795614       0.23382068       0.23625283       0.26196858       0.36074711       0.29847204       0.18428783       0.19032878       0.15717630       0.16402487       0.18255016       0.20684928       0.23845570       0.22322766       0.16896722       0.11271228       0.14056894       0.22672332       0.20343448
         0.21977202       0.14799191       0.07003861       0.12175851       0.08888384       0.17652226       0.26614941       0.24941963       0.20373447       0.34678520       0.36769083       0.25427010       0.17444912       0.14716069       0.12864199       0.15628917       0.25093704       0.28878873       0.26766519       0.25516628
         0.14400389       0.13039115       0.21754464       0.18030756       0.15849069       0.16524621       0.09821493       0.11732783       0.12962955       0.12632543       0.19196731       0.19207551       0.18818280       0.32411197       0.37957317       0.22769726       0.10859150       0.20209758       0.16929441       0.17761435
         0.24598619       0.28798703       0.31989636       0.25914961       0.13012815       0.17718179       0.30713989       0.22816056       0.21334310       0.21178780       0.12531197       0.11930387       0.16534566       0.10781753       0.15626702       0.17494390       0.17714966       0.26688948       0.30483253       0.22426300
         0.17229302       0.23973572       0.16766959       0.16838558       0.21960760       0.28592810       0.36585363       0.25119732       0.12525888       0.22283484       0.33543423       0.28417247       0.22172726       0.19483325       0.12170354       0.10350426       0.19611434       0.10988943       0.16813097       0.20184554
         0.20985865       0.24867651       0.28419421       0.20044602       0.15624576       0.17086108       0.14778223       0.19077121       0.19266432       0.28116410       0.34090711       0.20342971       0.10926833       0.18136500       0.27169684       0.28580453       0.18458211       0.11618088       0.14227534       0.10398566
         0.08674496       0.09221298       0.09650822       0.10793142       0.19214646       0.25059936       0.20066875       0.19228645       0.29392375       0.23699670       0.19729559       0.19077835       0.18121295       0.09134226       0.14107554       0.16217119       0.14308933       0.09990053       0.22174553       0.16808994
         0.18201236       0.14092022       0.26453585       0.29006498       0.16169140       0.06772022       0.06453640       0.11779451       0.19462575       0.34818610       0.23895848       0.21085455       0.18980177       0.23330058       0.18944164       0.13138025       0.20604736       0.10403214       0.15368985       0.16245806
         0.16267205       0.18087443       0.24178565       0.15870667       0.13349003       0.14004210       0.30448852       0.29592045       0.16563051       0.13702514       0.10075978       0.22390089       0.18268667       0.32086656       0.23465141       0.16083528       0.16786924       0.17842422       0.16138759       0.14217415
         0.18672565       0.12286731       0.26766940       0.20018287       0.22760056       0.22439132       0.19601881       0.12604858       0.13931841       0.17509450       0.27546874       0.23701582       0.10677309       0.22876982       0.19836476       0.27979978       0.17116506       0.23835780       0.18875926       0.20655203
         0.17291106       0.12865363       0.13542963       0.16739596       0.11186260       0.15050583       0.22760023       0.23691001       0.18003625       0.14866550       0.15597250       0.15331321       0.18548203       0.13470402       0.19612788       0.22975881       0.08563105       0.11982220       0.18858077       0.20477051
         0.19296560       0.24032050       0.31089255       0.21409727       0.18658760       0.12929622       0.10912325       0.20484322       0.16760918       0.14442584       0.20205877       0.19246169       0.21085746       0.13185390       0.13184786       0.16825895       0.15412259       0.18994191       0.17101211       0.17664629
         0.13436985       0.15934944       0.17448180       0.20222829       0.18514404       0.20400371       0.20928820       0.12391071       0.16024202       0.22394449       0.17284261       0.19492375       0.20316382       0.16670906       0.15901557       0.12067871       0.19232929       0.19609862       0.24824292       0.23668851
         0.16001930       0.16632017       0.18616723       0.15769427       0.19330406       0.23001872       0.15822761       0.10586669       0.21700360       0.19846629       0.13858188       0.17377648       0.19907581       0.30108811       0.23229744       0.17740181       0.19535247       0.20250710       0.22689088       0.22194967
         0.23737756       0.25873152       0.25117315       0.20518353       0.14153809       0.14386700       0.10831501       0.13038116       0.17127691       0.14287164       0.16868746       0.12386533       0.26262129       0.20123462       0.20412349       0.25674381       0.18652201       0.15759721       0.15453732       0.22973863
         0.27846116       0.29734655       0.26699175       0.23401410       0.22014866       0.16109761       0.18310138       0.14276595       0.17104632       0.21995866       0.20137039       0.22870690       0.23768724       0.24145059       0.20540945       0.17488813       0.10086220       0.13038390       0.15095374       0.11775853
         0.12280693       0.17192330       0.14994024       0.19788136       0.18850164       0.27295161       0.22475739       0.21658984       0.23329551       0.14297582       0.17044268       0.12899528       0.11560044       0.17481666       0.11558371       0.15404651       0.22949408       0.29634886       0.18801612       0.23208841
         0.08898339       0.12112956       0.15354914       0.06158574       0.14130766       0.29289290       0.26533290       0.25011538       0.23470407       0.22261590       0.16206391       0.20247863       0.14398546       0.19095958       0.19083882       0.17766837       0.18090685       0.17116010       0.12953253       0.16700270
         0.12729524       0.17190659       0.14977320       0.17010082       0.13773831       0.08266513       0.15517091       0.09015367       0.14514434       0.11654256       0.06706971       0.03777868       0.06197954       0.02888650       0.08810766       0.19237968       0.03746224       0.07081141       0.01170777       0.03722367
         0.06978967       0.12797700       0.06979481       0.13810830       0.25739584       0.31297790       0.21322455       0.25082794       0.19532929       0.21901813       0.28530734       0.33799557       0.22563376       0.26846223       0.22713781       0.19085045       0.29584379       0.26103097       0.28755754       0.29148302
         0.23254187       0.22588855       0.24949527       0.20414502       0.19334956       0.20565930       0.20276290       0.20073561       0.18163056       0.17273057       0.21663226       0.23307954       0.15136312       0.19179347       0.27009561       0.27200090       0.19437798       0.23587464       0.19791409       0.17637566
         0.21999296       0.19736396       0.14874865       0.15951296       0.23188435       0.18741120       0.22374349       0.19888771       0.18481956       0.21028779       0.19871303       0.18932415       0.16744626       0.14118988       0.18061495       0.15561994       0.17271002       0.20735932       0.17040517       0.16452729
         0.21316380       0.17953101       0.28713691       0.27583809       0.20375261       0.14536127       0.05842680       0.06117696       0.07903348       0.04160441       0.14581794       0.20728294       0.12926221       0.24532052       0.17169792       0.09230020       0.04473272       0.09601174       0.06522463       0.20606138
         0.13132383       0.03148258       0.02344648       0.07316188       0.05279590       0.07006445       0.11376348       0.08411055       0.12088345       0.16905380       0.11639185       0.16589937       0.23172988       0.16897814       0.21279811       0.23271040       0.23887079       0.21542299       0.20135046       0.16391129
         0.19838952       0.18093547       0.19855583       0.17712460       0.18582736       0.17569569       0.15608190       0.23720042       0.25117332       0.19928902       0.18567107       0.23023956       0.17436565       0.17556048       0.14515344       0.16838662       0.14322669       0.14904274       0.14977977       0.15712474
         0.14652774       0.13506596       0.12468272       0.15539001       0.14160509       0.13991333       0.13201646       0.13310525       0.13638881       0.13461051       0.10667614       0.14127730       0.13571138       0.13731063       0.14217287       0.15372539       0.12463105       0.14691717       0.14842893       0.18486458
         0.15501561       0.14408937       0.12827753       0.14037158       0.10558058       0.12104231       0.09786988       0.06540287       0.06152001       0.09127198       0.07081094       0.07656685       0.08483229       0.05427243       0.07225029       0.12606013       0.19074305       0.12090319       0.12281838       0.19631657
         0.06472759       0.06327371       0.17078062       0.18330951       0.20687249       0.18650649       0.13865405       0.19191451       0.27709736       0.11889344       0.20485392       0.19348985       0.21685690       0.17042869       0.28211577       0.25458946       0.23818249       0.13287606       0.22954822       0.25315930
         0.23343135       0.17779406       0.19103345       0.22599801       0.19436309       0.14674806       0.12909145       0.17104113       0.16785067       0.14257323       0.13954568       0.14664196       0.15421144       0.12525796       0.13096315       0.11874991       0.06855383       0.15678319       0.11299464       0.10811629
         0.09177119       0.07449673       0.08666050       0.05500347       0.05507602       0.03537681       0.02639638       0.04978604       0.01546901       0.02169781       0.03076487       0.01176144       0.02002081       0.12226528       0.21344596       0.17378720       0.18956820       0.16950583       0.17883128       0.21871073
         0.07592562       0.23988922       0.24608579       0.21710544       0.15455491       0.25675332       0.28950569       0.23927744       0.21584223       0.16676717       0.18145792       0.18934203       0.20029726       0.19639958       0.20932537       0.07863832       0.06410565       0.12884565       0.23716408       0.17144712
         0.19302508       0.15769701       0.09789286       0.17040150       0.04526788       0.18304164       0.25805715       0.22643910       0.14385675       0.26677714       0.30604072       0.23970217       0.20696801       0.16763508       0.19185132       0.21841118       0.24105500       0.25698561       0.25701770       0.19801977
         0.14344368       0.11052276       0.14696519       0.20145056       0.20839433       0.18718264       0.07943756       0.11887791       0.14216141       0.11186949       0.17492025       0.16694783       0.16140413       0.23778201       0.26790596       0.19174710       0.17881799       0.15583837       0.23312429       0.18179043
         0.17765159       0.25411838       0.31878662       0.30962683       0.17453831       0.16481775       0.21517024       0.21473175       0.25708705       0.21918832       0.19304988       0.16683832       0.20654918       0.22298234       0.18935920       0.15958129       0.15875115       0.18065789       0.20635649       0.14817597
         0.14200690       0.14796751       0.19502620       0.16372830       0.18503164       0.22767122       0.31501345       0.23847690       0.26401910       0.18796199       0.26646921       0.18359950       0.16677471       0.20059346       0.21195470       0.15575639       0.21362712       0.22859148       0.21337972       0.20912760
         0.18205803       0.22510812       0.23374716       0.19075282       0.17258070       0.09743360       0.17956981       0.22749565       0.22031951       0.24860551       0.26694732       0.20916722       0.25145832       0.30189748       0.25124072       0.15906035       0.15684877       0.09955910       0.14638504       0.17147719
         0.11712303       0.13391857       0.15687464       0.13766568       0.20688139       0.24464385       0.18254471       0.26756632       0.29150164       0.18562826       0.21829842       0.20943431       0.20308557       0.20139926       0.21900123       0.19658320       0.18141941       0.17005629       0.20267736       0.17994473
         0.14807201       0.11518828       0.22358377       0.22045548       0.19346607       0.13012255       0.11260661       0.14839048       0.25496865       0.29522580       0.16353328       0.24785541       0.28909761       0.24252418       0.27305845       0.18845269       0.21474847       0.17227961       0.18841797       0.18654023
         0.22363927       0.23627800       0.21781990       0.20032132       0.14662586       0.11161358       0.22564099       0.24488704       0.21871237       0.20361346       0.16491137       0.21483057       0.20855865       0.29330655       0.23028291       0.23862060       0.20622388       0.26704444       0.27781994       0.16682536
         0.24314195       0.18030360       0.20876153       0.21989594       0.23667791       0.22873445       0.23979229       0.16749949       0.17772864       0.17224014       0.20254387       0.19028299       0.17204488       0.22688921       0.19488955       0.25364621       0.19287899       0.20566435       0.21418553       0.22437021
         0.14962171       0.21463102       0.24712446       0.22292726       0.23185176       0.20104118       0.18593460       0.18820400       0.18184515       0.19208966       0.21776721       0.13057754       0.14814236       0.19421858       0.16418337       0.18023263       0.12147350       0.18414629       0.20770600       0.24057367
         0.25007218       0.19533673       0.25093464       0.20471310       0.20768042       0.18109298       0.17441708       0.21345468       0.23164804       0.19090409       0.18216954       0.17357890       0.15166604       0.16534914       0.18141122       0.16276893       0.14771831       0.12759082       0.11467565       0.15986465
         0.13838236       0.20296057       0.19107832       0.22238053       0.27780427       0.24067465       0.23309804       0.17488557       0.22507481       0.20653797       0.20384138       0.22585960       0.24910268       0.19630107       0.20053756       0.22750316       0.20911378       0.21964276       0.26414954       0.24033910
         0.16239149       0.12999599       0.13190837       0.12434446       0.17542124       0.15799734       0.16894021       0.20015440       0.28457653       0.26954021       0.28516231       0.26640910       0.27368376       0.25586922       0.18843053       0.21048855       0.24977054       0.18748202       0.17223283       0.25584653
         0.25795917       0.28144695       0.28086177       0.24954626       0.18087080       0.13359412       0.09713903       0.11352702       0.19233837       0.10390557       0.16928829       0.18784176       0.25477098       0.23624200       0.20630419       0.22435227       0.24160041       0.18511856       0.16711153       0.18285382
         0.21728352       0.22629599       0.22460369       0.19354947       0.21818336       0.16051643       0.19099056       0.17607832       0.18711914       0.23637442       0.24329671       0.19027484       0.24741506       0.21635592       0.23533881       0.15197452       0.10924750       0.16016867       0.09431409       0.05120238
         0.09257323       0.20684555       0.15772933       0.21015204       0.21101855       0.21769201       0.20299816       0.18114183       0.14485642       0.13525606       0.11376789       0.13906238       0.12689340       0.17555565       0.14507581       0.17466770       0.19513027       0.23436236       0.19081499       0.18801921
         0.15399458       0.13526654       0.11088369       0.09977371       0.09687474       0.27297884       0.21710857       0.24979943       0.21294231       0.18923358       0.19506305       0.18782335       0.21213246       0.17928217       0.19507390       0.14808893       0.19817742       0.19022740       0.19950923       0.17767815
         0.16490373       0.18044915       0.14910901       0.18571377       0.13804528       0.12465454       0.17753551       0.12667874       0.16789709       0.11233128       0.11762559       0.08242487       0.08221106       0.05108321       0.11684598       0.18739083       0.07386572       0.08711706       0.03452156       0.04971425
         0.10817743       0.13569767       0.09329629       0.13855448       0.26807275       0.30176493       0.21173394       0.26242763       0.20617731       0.24282374       0.30763208       0.32284471       0.27175123       0.27325919       0.27168993       0.27657576       0.29783299       0.26245000       0.27035037       0.25406137
         0.27256375       0.25702257       0.24580852       0.23669556       0.23624470       0.21994084       0.25314773       0.23636138       0.22903408       0.22246289       0.23645940       0.23547294       0.21287290       0.22519069       0.25133495       0.20452167       0.21353114       0.22489932       0.23382751       0.24828692
         0.18074224       0.12805938       0.17059828       0.13611134       0.16647485       0.16376114       0.12898322       0.09446449       0.13400891       0.12348604       0.14389622       0.20302941       0.14671042       0.12087997       0.16774904       0.10264569       0.06115936       0.16604824       0.21571390       0.19484865
         0.21566827       0.22212310       0.23451448       0.19530070       0.23108312       0.17665064       0.12749318       0.07980098       0.15501039       0.07358016       0.13139723       0.18341344       0.14040337       0.20833894       0.16198977       0.08798530       0.04873901       0.09380392       0.06648942       0.17043127
         0.15604821       0.05227587       0.03846876       0.09086263       0.07457297       0.08069396       0.12664818       0.10250695       0.16937384       0.18584131       0.15632985       0.18661321       0.22714973       0.19764265       0.23800493       0.24117331       0.24475133       0.22614339       0.20724158       0.20001459
         0.20468499       0.20302480       0.21597077       0.19936088       0.20803851       0.20513613       0.21206185       0.23468349       0.24273842       0.20988622       0.22188430       0.21733760       0.21413670       0.18185528       0.16998612       0.20167165       0.18237608       0.20414842       0.18373643       0.17193915
         0.15037296       0.15962088       0.13678663       0.21681757       0.22117222       0.19267889       0.19765533       0.21107975       0.23547637       0.19947377       0.23398044       0.15908158       0.16419484       0.14005474       0.16213741       0.18220660       0.22371545       0.17369396       0.22314460       0.26726350
         0.24351377       0.25171704       0.22728519       0.23318142       0.18069524       0.23134799       0.22642836       0.24723383       0.21737429       0.21823871       0.20421760       0.22948553       0.23677878       0.20609251       0.22668864       0.14518564       0.17670746       0.20037738       0.19082109       0.17287368
         0.23042063       0.18869068       0.21530825       0.20690181       0.19982676       0.21972807       0.14792499       0.08660875       0.18587314       0.17403849       0.15556699       0.15465013       0.20196092       0.18519717       0.21463684       0.25617340       0.31351334       0.22952092       0.23226845       0.24600168
         0.24551540       0.18631894       0.23158456       0.22037107       0.21344289       0.17724439       0.13511300       0.18228520       0.14442735       0.14945886       0.13697848       0.13733775       0.14392738       0.14743247       0.19614928       0.13119161       0.16738250       0.14984760       0.15828999       0.19384175
         0.20562341       0.15753212       0.16906266       0.18756626       0.23721419       0.14557673       0.17836720       0.10984040       0.13076959       0.21474438       0.16045741       0.13459310       0.11925067       0.15263804       0.23515333       0.26079258       0.22398780       0.19344470       0.15369873       0.15075659
         0.08331114       0.21857509       0.19061899       0.18328885       0.12758341       0.12358482       0.23811527       0.26561522       0.32070056       0.20488617       0.20384449       0.25534196       0.25699717       0.19729448       0.18183896       0.11759458       0.08715219       0.18041830       0.28816099       0.24306481
         0.18952303       0.19172496       0.15722061       0.15544389       0.05175051       0.19666215       0.22695341       0.19409526       0.14490511       0.15948726       0.20927084       0.23411775       0.21964504       0.18038537       0.21144753       0.22024330       0.26419235       0.22055347       0.17780536       0.14124227