# File generated by Flopy version 3.9.1 on 06/09/2025 at 12:54:55.
BEGIN options
END options

BEGIN griddata
  strt
    CONSTANT      10.00000000
END griddata

