# File generated by Flopy version 3.9.3 on 09/16/2025 at 10:13:07.
BEGIN options
  SAVE_FLOWS
  DENSITY_WATER    1000.00000000
  HEAT_CAPACITY_WATER    4186.00000000
  LATENT_HEAT_VAPORIZATION  2.26000000E+06
END options

BEGIN griddata
  porosity
    INTERNAL  FACTOR  1.0
         0.20128220       0.19443445       0.20456770       0.22506799       0.23944885       0.22770320       0.19477306       0.15410370       0.11472174       0.09415527       0.12666760       0.16834831       0.22655429       0.30884817       0.38973102       0.39572915       0.36343563       0.28911304       0.19131069       0.16257684       0.16024521       0.17239329       0.19844772       0.22431266       0.26532811       0.30371195       0.34155667       0.35505801       0.38064748       0.39721778       0.40000001       0.38690436       0.33188230       0.28383616       0.23784889       0.20031780       0.16279383       0.11627349       0.07131337       0.05297223       0.07065308       0.10947023       0.13057098       0.13445988       0.13867250       0.15083025       0.15205999       0.16191815       0.15573046       0.15470260       0.13853583       0.12325896       0.12494298       0.17111787       0.23781405       0.32257825       0.38691059       0.39976394       0.39397451       0.36291164       0.28333789       0.20254564       0.16127612       0.13657089       0.16195755       0.20308167       0.25387597       0.25228417       0.23730984       0.21907446       0.16860242       0.13387223       0.10139230       0.11317100       0.16700035       0.20335412       0.22418626       0.24590409       0.27288425       0.27029887       0.22312954       0.16252123       0.15382846       0.13985419       0.14489715       0.12827781       0.14367937       0.17061694       0.21717279       0.24356367       0.27763504       0.29248673       0.27651310       0.27986634       0.30332953       0.32018042       0.30046624       0.28336653       0.29815325       0.27155730
         0.17441522       0.18342641       0.21765673       0.25461879       0.26299337       0.26746619       0.25239128       0.22644772       0.16255319       0.12964985       0.13377684       0.17653997       0.22476238       0.28875846       0.32792833       0.36217645       0.36483374       0.30414391       0.20139885       0.15487859       0.12035519       0.10752825       0.14745417       0.19055425       0.21964215       0.26822186       0.33493143       0.35503623       0.37437329       0.38909948       0.37265465       0.34581649       0.28302863       0.21558341       0.18615350       0.16455494       0.11980259       0.07133621       0.03279753       0.02234237       0.03000129       0.08826561       0.14012215       0.15566763       0.17341647       0.18401764       0.18240020       0.15426601       0.14052710       0.14168051       0.12855902       0.12767966       0.09904233       0.11938783       0.20840505       0.29641655       0.37707618       0.40000001       0.40000001       0.39264694       0.29419234       0.20588803       0.15369147       0.11582274       0.15565957       0.20630991       0.23386064       0.21289542       0.19762246       0.16408594       0.12035780       0.06710157       0.04073623       0.04896630       0.11190200       0.15426481       0.18923751       0.21534474       0.23182352       0.25771576       0.24066143       0.21611232       0.22067244       0.20063847       0.19097106       0.18270271       0.19826627       0.21096668       0.24782006       0.27892226       0.27655151       0.24461524       0.24245654       0.25371137       0.28028420       0.27278012       0.26320475       0.27002278       0.28469849       0.27549717
         0.15862091       0.19458371       0.21172194       0.26673013       0.28025967       0.27970132       0.26419836       0.22126032       0.17588167       0.12789260       0.10968640       0.16142878       0.19740987       0.23956497       0.29923087       0.34115195       0.33508259       0.27399015       0.20252772       0.13495740       0.08887367       0.07502192       0.12143806       0.14782031       0.17473194       0.24319284       0.31982112       0.35904410       0.36112568       0.35037225       0.32857609       0.26770616       0.19782430       0.13253985       0.12486120       0.09312678       0.06847457       0.03069751       0.00455891       0.00759209       0.01947209       0.07533396       0.12540400       0.17316629       0.16972873       0.18870854       0.18430658       0.09370369       0.09695263       0.13837254       0.13292409       0.10777505       0.07724852       0.09221150       0.14470473       0.25017515       0.34654081       0.40000001       0.40000001       0.39974582       0.31640074       0.20748393       0.14804472       0.12088442       0.15777700       0.18602751       0.20424607       0.18468413       0.15237954       0.11159200       0.06690627       0.01998961       0.00690971       0.00000000       0.02957466       0.07814838       0.12365107       0.15361969       0.18619247       0.22549742       0.23613738       0.22683144       0.24814357       0.26759824       0.25138989       0.25785547       0.26856437       0.27055359       0.26437929       0.27496046       0.25022817       0.21992479       0.20262888       0.20376846       0.21712437       0.22616918       0.25822461       0.26674321       0.26352695       0.26747215
         0.12108181       0.14212358       0.20464627       0.25362208       0.31515822       0.34940794       0.31678486       0.25782666       0.18351643       0.12401267       0.10031489       0.12720528       0.17092530       0.21247971       0.26423883       0.30943909       0.31092915       0.25286233       0.18772806       0.16247937       0.13947047       0.09621676       0.10514294       0.11940869       0.15002853       0.21883264       0.30705526       0.36157644       0.36383367       0.32098365       0.27169409       0.20282836       0.13089499       0.09391525       0.09129801       0.07017422       0.05518617       0.01693442  4.74869274E-04       0.00306976       0.02246063       0.08020674       0.11819454       0.15899885       0.14534201       0.13446173       0.12891155       0.07723382       0.08389083       0.12854068       0.11466212       0.09564428       0.06626638       0.09986052       0.14101674       0.22552630       0.33565259       0.39735898       0.40000001       0.38382596       0.30908197       0.20103924       0.13542445       0.11077642       0.14639357       0.18418625       0.19525352       0.16181737       0.13188878       0.09088743       0.04270115       0.00000000       0.00000000       0.00000000       0.00000000       0.00742537       0.04536296       0.08616185       0.13558069       0.18035066       0.22668867       0.22742729       0.26254639       0.29543951       0.29137164       0.32236740       0.32489780       0.30386272       0.29232889       0.27245146       0.22869785       0.18042590       0.16748857       0.15300462       0.16690172       0.17584677       0.21824455       0.22586854       0.24346338       0.27837524
         0.07186959       0.10567096       0.18731603       0.25361097       0.33317563       0.35382211       0.35951006       0.29898065       0.19353563       0.17706122       0.14939018       0.12655339       0.14831589       0.18625765       0.23403436       0.28031859       0.26943499       0.25061554       0.21614707       0.20875673       0.18821980       0.14615127       0.13644809       0.13031143       0.14916432       0.19384690       0.28476349       0.32293764       0.32863110       0.30030957       0.26064855       0.17035073       0.10876393       0.05426836       0.05167626       0.04743628       0.04668290       0.02536176  1.25805236E-04       0.00156196       0.04681867       0.09635171       0.13311228       0.14412393       0.13355741       0.10044443       0.10040478       0.05800993       0.06070287       0.09875302       0.07985537       0.07505430       0.08258850       0.10728469       0.14546669       0.22587760       0.31016022       0.36198735       0.35598102       0.34761983       0.30506951       0.23557729       0.16304450       0.13956554       0.14288774       0.14199451       0.11170202       0.12026308       0.12686493       0.08225584       0.04970395       0.01256512       0.00000000       0.00000000       0.00000000       0.00000000  2.97644961E-04       0.01926965       0.07559895       0.13120173       0.17692368       0.21297589       0.27757648       0.32178846       0.34814796       0.36354271       0.35590553       0.33634949       0.31687495       0.29163072       0.21602859       0.15090211       0.14340471       0.12137476       0.12702969       0.12946236       0.16512479       0.21774037       0.22934799       0.25843847
         0.05019842       0.08420753       0.16159901       0.24424903       0.29971802       0.33011395       0.33303276       0.28236902       0.21536303       0.18203406       0.15147287       0.14823443       0.13515688       0.16820203       0.19581260       0.23021060       0.26435658       0.27338201       0.24726306       0.24549690       0.24273941       0.21037684       0.17088194       0.14943729       0.13933721       0.19132350       0.24404860       0.28581831       0.28676507       0.26422226       0.24579784       0.16924198       0.08576060       0.02299831       0.02803320       0.06264552       0.05868750       0.05724734       0.04108731       0.05235679       0.10396657       0.15036137       0.15141486       0.12523915       0.11137003       0.06981833       0.07204627       0.03815312       0.02731670       0.06107353       0.07552263       0.07852235       0.09384096       0.12646946       0.17560294       0.21240187       0.26502457       0.30671674       0.30196407       0.31174198       0.29894429       0.24009283       0.19198926       0.17651436       0.13157681       0.10445528       0.07747929       0.07203373       0.09977322       0.08335826       0.05288063       0.05099358       0.02015293       0.00000000       0.00000000       0.00000000       0.00000000       0.00000000       0.02439624       0.07219607       0.11589421       0.17918944       0.24600460       0.29427046       0.34707084       0.38692823       0.37234926       0.35677865       0.31984565       0.27722052       0.22777358       0.16790536       0.14560802       0.11822695       0.12983046       0.14063103       0.15549557       0.18891785       0.21920632       0.23991866
         0.06258215       0.11388364       0.17513134       0.23316924       0.26659498       0.29272512       0.30270800       0.26485690       0.21704245       0.17367247       0.13234827       0.13755925       0.14364065       0.15683292       0.15345210       0.18933491       0.25291783       0.29826167       0.30383313       0.29385921       0.27930701       0.23618658       0.21323879       0.19475421       0.17767839       0.19806220       0.22043270       0.26081797       0.23304881       0.23773572       0.22341634       0.16137116       0.09593883       0.04337429       0.01742399       0.05120925       0.04709993       0.05980556       0.07869740       0.10366241       0.16259387       0.18855159       0.17462450       0.13726744       0.12854339       0.10528671       0.07898235       0.03991441       0.04669789       0.06864254       0.07978661       0.09515881       0.12688452       0.16322699       0.18486626       0.23834652       0.27330554       0.28882486       0.29605222       0.31088114       0.30636293       0.25469673       0.21334118       0.18616207       0.16723548       0.10848349       0.06001004       0.04291306       0.07291376       0.07620435       0.06703261       0.07016829       0.04071540  6.18893711E-04       0.00000000       0.00000000       0.00000000       0.00000000       0.00000000       0.00338959       0.07101621       0.13349533       0.20381752       0.23179029       0.27714109       0.32739657       0.35205600       0.34832397       0.33204174       0.30285448       0.25551233       0.21122332       0.18314818       0.15105116       0.15398781       0.16920078       0.15737391       0.17366040       0.20446798       0.23236665
         0.06942762       0.13254969       0.18241851       0.22354415       0.25455534       0.30184653       0.30370119       0.26754323       0.22692066       0.16528104       0.13144535       0.13401355       0.12193829       0.12197537       0.12908904       0.19546713       0.26186326       0.31001121       0.32692125       0.33811855       0.31321055       0.27980381       0.23830648       0.21512486       0.19497119       0.19257338       0.17403577       0.19131836       0.18856800       0.17851439       0.16592440       0.17349526       0.15034091       0.10970256       0.07783356       0.06681096       0.07956278       0.10158177       0.14415325       0.15142664       0.19239073       0.22437787       0.22300881       0.18250777       0.16200681       0.13974606       0.09342109       0.06133479       0.08281337       0.10532675       0.13897075       0.15481700       0.16562000       0.17411773       0.20332170       0.24301440       0.24462181       0.27733335       0.26485237       0.28611749       0.28709698       0.24856463       0.21524249       0.19126129       0.17369604       0.10078353       0.02339964       0.00727523       0.04770194       0.06784993       0.08847585       0.10619087       0.07737197       0.01926751       0.00000000       0.00000000       0.00000000       0.00000000       0.00000000       0.00000000       0.03036253       0.10239006       0.16419181       0.19869968       0.24456505       0.27356628       0.28329527       0.30693263       0.32353783       0.31938148       0.29995745       0.30460596       0.26231739       0.22344556       0.21750906       0.21866493       0.18017328       0.18157876       0.22381644       0.23605552
         0.10608107       0.13131998       0.16137598       0.19396771       0.22102691       0.25054598       0.27112734       0.24536861       0.22756243       0.17772260       0.13807210       0.13765612       0.13186130       0.11066256       0.12681787       0.18660067       0.26791438       0.33605638       0.35753384       0.35109377       0.33822089       0.29621550       0.25553635       0.20396735       0.19203913       0.16637550       0.13310038       0.13769346       0.14939506       0.14795566       0.13655183       0.17841220       0.16763629       0.16400617       0.13046981       0.09442103       0.10337383       0.12998383       0.17523792       0.21456964       0.24439467       0.25549844       0.26126716       0.21460532       0.18761909       0.16973640       0.13722533       0.11088342       0.11587282       0.15482362       0.19740596       0.22107573       0.23210602       0.24846900       0.25432977       0.24015713       0.23558182       0.28042200       0.25049630       0.24513403       0.25367379       0.21493204       0.18738909       0.19673355       0.18967316       0.13984452       0.06418466       0.03846000       0.05670653       0.08789685       0.11507894       0.12394196       0.09864254       0.04698249       0.00125600       0.00000000       0.00000000       0.00000000       0.00000000       0.00000000       0.00153537       0.04472715       0.11740823       0.16913567       0.17734173       0.19597422       0.22050129       0.27541631       0.31607851       0.34316295       0.35427547       0.34029454       0.32057407       0.29191846       0.27103636       0.26167181       0.22118208       0.22172037       0.24253798       0.21816397
         0.11785150       0.12518440       0.12813111       0.19601581       0.22260755       0.25147831       0.25016510       0.24465579       0.23315972       0.20576537       0.16433932       0.15555823       0.15696703       0.14568487       0.19670396       0.24462825       0.28510967       0.33169129       0.37970969       0.37475422       0.32304499       0.30626795       0.24921435       0.19492961       0.16209209       0.13918856       0.09680640       0.07438915       0.11281169       0.13354553       0.15065359       0.17153475       0.18428861       0.18027133       0.14091143       0.11505904       0.12358117       0.15111186       0.20135356       0.26526323       0.29426125       0.27419350       0.24820656       0.21501952       0.18599719       0.17612536       0.17623770       0.15027779       0.18461420       0.20996675       0.24630609       0.28393391       0.29875413       0.30465928       0.31228724       0.30682915       0.28758076       0.29826805       0.24834502       0.21596608       0.19206178       0.17048120       0.16977966       0.19282661       0.20644277       0.16442364       0.10830498       0.08794601       0.07606538       0.10704777       0.13569623       0.14055605       0.12321797       0.09152018       0.04221923       0.01785535       0.00000000       0.00000000       0.00000000       0.00000000       0.00000000       0.02304000       0.08710426       0.14277422       0.15643568       0.17361705       0.22128217       0.27812070       0.32758132       0.35430238       0.36001045       0.36043090       0.34533215       0.33597136       0.31227189       0.28916964       0.27283344       0.25340909       0.26140279       0.24339415
         0.10745227       0.10798045       0.10412274       0.17044361       0.19467181       0.22989208       0.24644266       0.26622799       0.24709350       0.23364425       0.21344291       0.21477330       0.20177196       0.16728269       0.25012147       0.30418423       0.34644881       0.37376690       0.38569731       0.37705141       0.33096302       0.28703174       0.25187206       0.20015489       0.13067889       0.10934793       0.08719782       0.07365684       0.07554683       0.10629912       0.13445655       0.16750218       0.18415906       0.16570662       0.14887682       0.11215494       0.12560743       0.15516914       0.22500925       0.27641058       0.29885003       0.29066673       0.26040712       0.22165602       0.18299814       0.17821060       0.20150460       0.19309941       0.22678223       0.24988474       0.29242021       0.32155281       0.33213967       0.32987469       0.35153845       0.34511873       0.31045908       0.30122021       0.24196234       0.17864195       0.14685465       0.12249175       0.15111679       0.20960236       0.22412349       0.18336265       0.15487881       0.14396751       0.12343998       0.12605841       0.16068368       0.20139450       0.16578209       0.09856850       0.04652390       0.04376934       0.00341884       0.00000000       0.00000000       0.00000000       0.00000000       0.04202038       0.10657553       0.12547655       0.14075434       0.17588654       0.22784050       0.27883396       0.34567952       0.36108768       0.35855639       0.36026639       0.36799210       0.36569694       0.35058504       0.34697658       0.31984010       0.29180720       0.29274422       0.27795923
         0.11147792       0.09506447       0.10787991       0.14131355       0.18824875       0.22021183       0.25064227       0.28955314       0.27649313       0.27431905       0.26843593       0.25748643       0.23001146       0.25354239       0.29015633       0.34437141       0.35764620       0.37113985       0.39243999       0.37001225       0.33185890       0.28015870       0.24456096       0.17638849       0.12028701       0.09119023       0.07363203       0.05373022       0.02896613       0.03847386       0.10076881       0.11482695       0.13877513       0.13373166       0.10730064       0.11826113       0.13119338       0.16890775       0.24432527       0.27543667       0.29093239       0.27181160       0.27145734       0.24605586       0.24078374       0.21840467       0.21121010       0.22695884       0.26169607       0.28524420       0.33590582       0.36450949       0.34495348       0.33886942       0.34546322       0.32796118       0.30339819       0.29675123       0.22582981       0.14281735       0.09975073       0.12083969       0.15984419       0.20212945       0.22133180       0.21840388       0.19710612       0.17706400       0.15968391       0.15281497       0.17547117       0.22821815       0.18661115       0.13007006       0.09792279       0.07481376       0.03333875       0.00000000       0.00000000       0.00000000       0.02024847       0.03554160       0.08546776       0.13209666       0.15368156       0.19134165       0.25365642       0.28395671       0.30692047       0.33514795       0.35224161       0.35968050       0.37279227       0.36188275       0.34782919       0.36498013       0.35052982       0.34686181       0.34038711       0.30439898
         0.16019998       0.13842675       0.13459684       0.14071682       0.18171069       0.22811797       0.28002983       0.31512418       0.30827129       0.29308826       0.29090294       0.28609473       0.29235342       0.31489372       0.33717355       0.37947008       0.39259139       0.37883833       0.39961904       0.39291143       0.34307352       0.27633560       0.21197602       0.13561195       0.10152951       0.06313729       0.05650419       0.01828157       0.00000000       0.00297302       0.03029024       0.08340500       0.11478137       0.10372801       0.10067073       0.10820211       0.12583101       0.17237236       0.23213767       0.26295102       0.28673866       0.26836741       0.24727418       0.25898874       0.26754236       0.26403323       0.25532970       0.25406596       0.26326063       0.28460392       0.32885242       0.35130331       0.34446508       0.32132363       0.30289394       0.28189626       0.27709225       0.25645250       0.17415118       0.11449321       0.11422612       0.15000115       0.19396590       0.21855305       0.24018013       0.25866821       0.26196158       0.21726194       0.20352888       0.18488884       0.20593449       0.22236395       0.20667882       0.16309023       0.14821678       0.19723722       0.08914951       0.03495149       0.00000000       0.01222895       0.04566709       0.02714160       0.04212962       0.08935796       0.11947611       0.16330938       0.21328077       0.23716342       0.26092535       0.28445232       0.31402409       0.32080102       0.33241576       0.33996722       0.32956272       0.33871165       0.36939940       0.37312859       0.37940127       0.33756617
         0.18669698       0.18216240       0.17385566       0.16112047       0.19063056       0.25934708       0.31750888       0.35742712       0.33376366       0.32180104       0.30491504       0.30438429       0.33323622       0.35106418       0.37025124       0.38228729       0.38927031       0.38544241       0.40000001       0.39938372       0.36903772       0.30048120       0.22436257       0.14890155       0.10501204       0.07934404       0.03620294       0.00220267       0.00000000       0.00000000       0.00927101       0.05755004       0.09793386       0.09551443       0.11073042       0.12179861       0.13710819       0.17146245       0.21265188       0.22941203       0.24670114       0.24864931       0.25526154       0.27013028       0.27844083       0.28124377       0.26980904       0.26517761       0.24617086       0.23647919       0.25452653       0.27707326       0.30273998       0.27957189       0.25050297       0.21217060       0.17364080       0.14134140       0.09085902       0.06152529       0.09102742       0.15267658       0.19422260       0.23753691       0.27837056       0.29179299       0.27677554       0.24117215       0.22268839       0.19023359       0.17779110       0.21782488       0.22113416       0.20313345       0.19723722       0.19723722       0.11495937       0.04914551       0.00847351       0.04601076       0.05601807       0.06125590       0.08942860       0.09445623       0.13242763       0.16104393       0.18195798       0.17977571       0.21455872       0.23779447       0.26164564       0.29402500       0.30417913       0.29749399       0.33120066       0.36631820       0.38204637       0.39689404       0.39028433       0.35602233
         0.19798416       0.18446474       0.18092285       0.18366736       0.20190363       0.26670587       0.31186849       0.33724183       0.36034015       0.36049002       0.34392279       0.34007919       0.32708427       0.35424379       0.38686991       0.38899559       0.39689136       0.40000001       0.40000001       0.40000001       0.38103020       0.32607663       0.24468720       0.17780364       0.11691902       0.08463863       0.03448712       0.00558092  2.19014604E-04       0.00000000  7.65739882E-04       0.07398503       0.08846246       0.12074202       0.13357598       0.13666295       0.12219718       0.14887540       0.16393411       0.19474134       0.20531611       0.22208178       0.26371852       0.28268144       0.27973279       0.26545832       0.23570096       0.20496753       0.19099058       0.20141634       0.18832275       0.18051323       0.21201348       0.21030095       0.17694449       0.13892509       0.08431622       0.05464558       0.04383598       0.02433601       0.05705388       0.11579223       0.18107846       0.22025388       0.26757652       0.27953270       0.25323081       0.23790658       0.22686617       0.21341173       0.22145820       0.20953226       0.23946999       0.19723722       0.19723722       0.19723722       0.19723722       0.09712381       0.09522489       0.10401157       0.10687061       0.09558407       0.11811551       0.15820064       0.16397412       0.17982101       0.16021822       0.17159820       0.16491759       0.17127553       0.21510729       0.25952306       0.28087157       0.29199120       0.34190798       0.38300106       0.38310170       0.38654658       0.38307002       0.35281760
         0.18308119       0.18030161       0.17284846       0.19845091       0.21935748       0.28890392       0.33294189       0.34421977       0.37635347       0.37172654       0.37651551       0.34539557       0.32474652       0.33186916       0.36072952       0.36922091       0.39994979       0.40000001       0.40000001       0.39553389       0.32880688       0.27551126       0.24327016       0.20721087       0.12701729       0.07185826       0.04222159       0.01567938       0.00000000       0.00000000  9.79926204E-04       0.08298290       0.11803447       0.16398615       0.15178123       0.13808867       0.12774202       0.13030630       0.14249229       0.16951585       0.20268130       0.23767015       0.25964293       0.27668378       0.26836020       0.24775966       0.20846295       0.16643846       0.16625565       0.17943114       0.11995278       0.08866415       0.11331622       0.11081565       0.08945528       0.07043284       0.03253257       0.02644469       0.02095260       0.01655292       0.04566322       0.08715840       0.13406286       0.18478218       0.22859350       0.26007912       0.25910398       0.25219384       0.23882353       0.22808948       0.23273620       0.25459984       0.19723722       0.19723722       0.19723722       0.19723722       0.19723722       0.16386069       0.15602551       0.18682666       0.17639194       0.15158559       0.17977414       0.19912802       0.18592077       0.16934805       0.13045168       0.14524271       0.12409089       0.11532762       0.17721656       0.22957285       0.25883707       0.31089714       0.32118756       0.34741727       0.36058766       0.33039358       0.30784947       0.27838972
         0.16342172       0.15894942       0.16994470       0.21013422       0.24951297       0.29743204       0.34012508       0.35067415       0.36727947       0.39370063       0.36235982       0.30460453       0.28619999       0.27059969       0.27584651       0.29197955       0.34488213       0.36138511       0.37853861       0.35277304       0.28191218       0.27149212       0.24879344       0.21486929       0.16182569       0.11077690       0.06564115       0.03652757       0.02630724       0.04006459       0.04954094       0.11440694       0.16367209       0.17774042       0.16226563       0.11867918       0.10991274       0.10893525       0.11904123       0.15994400       0.22236909       0.26236212       0.29401097       0.29374185       0.26278654       0.22563547       0.22043753       0.18676956       0.16336755       0.10980631       0.04014124       0.00583379       0.02325197       0.02753817       0.02761123       0.03838434       0.02652773       0.02397520       0.02130493       0.01712522       0.04057756       0.09916376       0.12413416       0.17845671       0.20821203       0.26862279       0.25941867       0.24160400       0.23179418       0.25683612       0.29212308       0.29151577       0.19723722       0.19723722       0.19723722       0.19723722       0.19723722       0.19237879       0.23252812       0.27999285       0.28086364       0.23984039       0.22697417       0.22532246       0.19115736       0.16496594       0.11605658       0.10467019       0.09524741       0.10835887       0.17106943       0.20639919       0.22019616       0.26691121       0.29328632       0.31781322       0.31154400       0.26366463       0.23464561       0.18244855