# File generated by Flopy version 3.9.2 on 03/11/2025 at 14:18:18.
BEGIN options
  SCHEME  tvd
END options

