# File generated by Flopy version 3.9.3 on 10/06/2025 at 15:29:42.
BEGIN options
  SAVE_FLOWS
END options

BEGIN sources
  CHD  AUX  TEMPERATURE
  WEL-INJ  AUX  TEMPERATURE
END sources

