# File generated by Flopy version 3.9.5 on 12/11/2025 at 15:17:39.
BEGIN options
  SAVE_FLOWS
END options

BEGIN sources
  CHD-1  AUX  TEMPERATURE
  CHD-2  AUX  TEMPERATURE
  WEL-INJ  AUX  TEMPERATURE
END sources

