# File generated by Flopy version 3.9.1 on 06/09/2025 at 12:54:55.
BEGIN options
END options

BEGIN griddata
  alh
    CONSTANT       5.00000000
  alv
    CONSTANT       1.00000000
  ath1
    CONSTANT       1.00000000
  ktw
    CONSTANT       0.56000000
  kts
    CONSTANT       2.50000000
END griddata

