# File generated by Flopy version 3.9.1 on 04/22/2025 at 12:10:40.
BEGIN options
  SCHEME  tvd
END options

