# File generated by Flopy version 3.9.2 on 03/11/2025 at 14:18:18.
BEGIN options
  SAVE_FLOWS
  DENSITY_WATER    1000.00000000
  HEAT_CAPACITY_WATER    4186.00000000
  LATENT_HEAT_VAPORIZATION  2.26000000E+06
END options

BEGIN griddata
  porosity
    INTERNAL  FACTOR  1.0
         0.19359508       0.20657983       0.22530055       0.24829851       0.25989783       0.25576037       0.24639972       0.23644277       0.22960380       0.21848795       0.22315037       0.22648945       0.24182908       0.25689501       0.29048359       0.28896666       0.29608682       0.26116389       0.22828750       0.22724068       0.23888591       0.25452214       0.25877699       0.26918966       0.29017636       0.32061073       0.33339050       0.33002236       0.33530462       0.33863312       0.33135557       0.31204107       0.27431554       0.23909044       0.20163886       0.16662924       0.12286387       0.07905446       0.05943070       0.05066850       0.05269228       0.06649067       0.07972670       0.09200643       0.09702346       0.10035358       0.10615741       0.11509367       0.12370028       0.13231725       0.13931890       0.15730259       0.17445305       0.21403232       0.25809044       0.30959496       0.33994964       0.35562235       0.36126488       0.35548928       0.31933299       0.28115216       0.24818449       0.21667482       0.20336103       0.20213780       0.20626779       0.19414416       0.17498088       0.15296718       0.11696336       0.08910932       0.06893208       0.07104029       0.09682778       0.11050075       0.12062524       0.14370605       0.17336458       0.18904626       0.18192734       0.17994125       0.17903526       0.18089759       0.17602943       0.16290785       0.16006364       0.16741605       0.18478222       0.19364977       0.21760906       0.23337783       0.24519537       0.26071697       0.27388495       0.27510968       0.26800600       0.25253174       0.24446695       0.23206337
         0.18980306       0.20707235       0.23433885       0.26061991       0.27539307       0.27303874       0.27324569       0.25898212       0.24135756       0.22490889       0.21207534       0.21975160       0.22078654       0.23205148       0.24799718       0.25965559       0.27142376       0.24501526       0.21449903       0.20984235       0.21060467       0.21486731       0.22996701       0.24098615       0.26215699       0.29005301       0.30925706       0.31383097       0.31665698       0.31221893       0.30269411       0.27788466       0.24492097       0.20050177       0.16343713       0.13112620       0.09392592       0.05702658       0.04409156       0.04288845       0.04695045       0.06111625       0.08276366       0.09186730       0.10001276       0.10438776       0.10414058       0.10748979       0.11349723       0.12479892       0.14171050       0.16536082       0.17476864       0.19293253       0.25071597       0.30537942       0.34630933       0.37074488       0.37609595       0.36492348       0.32207859       0.27506122       0.23410837       0.19959831       0.19327950       0.19327140       0.18755847       0.16162416       0.14847754       0.11957514       0.08978071       0.05502966       0.03899102       0.05318284       0.06946444       0.08603120       0.10498287       0.12216052       0.15443429       0.17255187       0.19108628       0.20185424       0.21014135       0.21034630       0.20243602       0.19424196       0.19754000       0.20614968       0.22338794       0.22137260       0.22481753       0.22521785       0.23632504       0.24998128       0.26432332       0.26569560       0.26319954       0.25271845       0.24546766       0.24253325
         0.17492639       0.20649394       0.23196416       0.26104486       0.27955991       0.28441519       0.28509942       0.26964799       0.25394848       0.23772144       0.21831411       0.21573067       0.20429705       0.20519094       0.21626048       0.23620367       0.24192457       0.21727006       0.19752741       0.18955424       0.18753093       0.19116850       0.20850614       0.22103639       0.23721433       0.26471916       0.28624564       0.29145718       0.29314154       0.28380138       0.26650885       0.23752862       0.19679780       0.16119328       0.12979348       0.09844851       0.06812886       0.04088318       0.03336056       0.04073408       0.04361441       0.06257017       0.07952646       0.09846087       0.09241442       0.09915926       0.09865563       0.08098514       0.09120502       0.12366221       0.14422964       0.15804964       0.16796453       0.19161330       0.23304924       0.28588638       0.33922169       0.36803398       0.37104493       0.36060998       0.32196558       0.26458630       0.22083004       0.19052958       0.19351143       0.18280193       0.17128882       0.15090397       0.12900269       0.09656576       0.06435406       0.03639173       0.02652771       0.03105459       0.04501878       0.05699277       0.08460279       0.10438514       0.12441818       0.16168030       0.18439305       0.20824079       0.22983806       0.24640411       0.23995470       0.23417322       0.24034679       0.25146332       0.25162679       0.24545678       0.22944477       0.22662468       0.23678870       0.24247448       0.24087678       0.24642368       0.25546813       0.25470728       0.24718857       0.24871564
         0.16226804       0.19102040       0.22436799       0.25653088       0.28922155       0.30290380       0.30188966       0.28205019       0.26566687       0.24449033       0.22664227       0.21958888       0.20532250       0.20051758       0.20980573       0.22035900       0.22252779       0.20252483       0.18170230       0.18795776       0.18882549       0.17626853       0.18834621       0.19911070       0.21791641       0.24317345       0.27108362       0.27863279       0.27417246       0.25893614       0.23690175       0.20419751       0.16297564       0.14052901       0.10395271       0.07692621       0.05016624       0.03347478       0.02707349       0.03420313       0.04484943       0.07075456       0.08607561       0.09778183       0.08815250       0.08738652       0.09019291       0.07805728       0.09784818       0.12825416       0.14105032       0.15605576       0.16909190       0.19327587       0.23369810       0.27537668       0.32438406       0.35411051       0.35691398       0.34101957       0.30754399       0.25114152       0.20653243       0.18183017       0.18362528       0.17916840       0.16834614       0.14014615       0.11882877       0.09049352       0.05775106       0.03174510       0.02426660       0.01719999       0.01428514       0.03135555       0.05780178       0.08019534       0.11052904       0.14017802       0.18014114       0.20350420       0.22995536       0.25777921       0.25589398       0.26780340       0.27815393       0.28038034       0.28318444       0.26278919       0.24225144       0.23196696       0.23819935       0.23833594       0.24049410       0.24083741       0.24927837       0.25180182       0.24719577       0.26184779
         0.13918677       0.18126003       0.22205094       0.25920147       0.29522336       0.30943167       0.31885868       0.30339220       0.28166217       0.26688802       0.24937332       0.22734255       0.20973274       0.20037337       0.21096773       0.21555766       0.21217683       0.20288606       0.19484341       0.19973934       0.19551054       0.17814545       0.18401459       0.19624603       0.20782128       0.22882175       0.24765944       0.25698745       0.24865481       0.23288900       0.21254326       0.17926751       0.14761080       0.11476853       0.08635236       0.06983332       0.05042117       0.02880403       0.02208931       0.04180043       0.06527130       0.09070985       0.09791160       0.09712324       0.08993732       0.08432805       0.08974517       0.08144058       0.09651747       0.12355649       0.13473323       0.15225674       0.17535950       0.20054577       0.23450007       0.27375990       0.31145757       0.33106744       0.32430008       0.32065579       0.29871044       0.25255135       0.21172728       0.18499079       0.17501462       0.15826610       0.13642088       0.12883273       0.12534711       0.09491079       0.07320479       0.04695842       0.03875099       0.02496631       0.00957255       0.01878037       0.04169232       0.05275754       0.07730074       0.11279977       0.14977047       0.19458614       0.22893675       0.25572172       0.26985291       0.28799680       0.29626176       0.30408382       0.30129501       0.28201327       0.25355655       0.23715782       0.23955481       0.23236401       0.23171082       0.23148482       0.24524195       0.26370347       0.26362091       0.27464280
         0.12545626       0.16664313       0.20987193       0.25490749       0.28469092       0.30740726       0.31736022       0.30320448       0.28466150       0.27002436       0.24557254       0.23239753       0.21300325       0.20875330       0.20930006       0.20396371       0.21184452       0.21014328       0.19893484       0.19366279       0.19726047       0.18375045       0.18207031       0.19125044       0.19693184       0.21180786       0.22784249       0.22834936       0.22576483       0.21173419       0.19893354       0.16868049       0.13370118       0.09419373       0.07582612       0.07235103       0.06160061       0.05933018       0.06033939       0.07534632       0.10547797       0.12837060       0.11395749       0.10033833       0.09439576       0.08695807       0.09714267       0.09812362       0.10153934       0.11707696       0.14054374       0.16069211       0.18724361       0.21716425       0.24815580       0.26993835       0.28845456       0.29419783       0.29150531       0.29849777       0.28731421       0.25056574       0.21770215       0.19859567       0.16630806       0.14042610       0.12026441       0.11044810       0.11178077       0.10045862       0.08281258       0.06991854       0.06015111       0.03910027       0.01158983       0.00927749       0.01585721       0.02931604       0.05423284       0.09620377       0.13076182       0.17571862       0.22092237       0.25148073       0.27928132       0.30511975       0.31259331       0.32017708       0.31746036       0.29599121       0.26986578       0.26205173       0.25653356       0.24460796       0.23848923       0.24080682       0.24995835       0.26642784       0.27170870       0.27363515
         0.12719268       0.16626957       0.20004472       0.24348310       0.26975006       0.30297083       0.31623966       0.30421162       0.28887710       0.26822007       0.24109986       0.22966081       0.21923807       0.21012005       0.21306992       0.20970559       0.22771101       0.22075427       0.21607943       0.20561171       0.19710600       0.18031444       0.18030456       0.18939166       0.19848700       0.21076529       0.21688055       0.20860848       0.19441822       0.18810116       0.18101069       0.15415083       0.12403455       0.08896355       0.07508175       0.08012617       0.07692674       0.08563741       0.09303834       0.10676370       0.13006665       0.14090464       0.12663795       0.11501291       0.11309589       0.10880169       0.10778645       0.10790854       0.11642005       0.13618037       0.16118842       0.18786073       0.21925458       0.25175059       0.26576516       0.28316647       0.29301530       0.29342622       0.28666568       0.28896347       0.28218558       0.25038230       0.22107196       0.19478026       0.17510524       0.13719246       0.11283716       0.10401098       0.10591754       0.10198162       0.08796436       0.08333769       0.07229747       0.04790016       0.02722193       0.02347078       0.01528733       0.01512290       0.04095003       0.06879392       0.11431278       0.15906869       0.21653725       0.24487269       0.26821679       0.30174920       0.31662229       0.32536164       0.33324471       0.32055211       0.29566911       0.28330007       0.27469990       0.25945565       0.25047934       0.25205806       0.25341079       0.26754126       0.27502683       0.27855784
         0.12388994       0.16468197       0.20228857       0.23756249       0.27135217       0.30434930       0.31665432       0.30888492       0.29406586       0.26056063       0.23769781       0.23326956       0.22769478       0.21219034       0.21235971       0.22850978       0.23519282       0.23600875       0.21962033       0.21644017       0.20296392       0.18601353       0.18659517       0.19046086       0.20723833       0.21413374       0.20748590       0.19267932       0.17557453       0.16547875       0.15170680       0.13958751       0.13479687       0.11101329       0.10044362       0.09632968       0.11057927       0.11516052       0.12349273       0.13309488       0.14484254       0.15703930       0.15318811       0.13968463       0.13701248       0.13410009       0.12392864       0.12770386       0.13831471       0.16282377       0.19373040       0.21987090       0.24714328       0.26686528       0.28557453       0.29365382       0.28906065       0.29288951       0.28040349       0.27410799       0.26192096       0.23687690       0.21498744       0.19490820       0.17750211       0.13735600       0.10015985       0.09422907       0.10450991       0.11080950       0.10419337       0.10604533       0.08613790       0.06015389       0.03629876       0.02738572       0.01024817       0.00850952       0.01742662       0.04913855       0.09714393       0.15264358       0.20427015       0.24611926       0.28042197       0.30436713       0.31565046       0.32864106       0.33760688       0.33457786       0.32142726       0.32241747       0.29802701       0.28190750       0.27400744       0.27331018       0.26650590       0.28478643       0.29104739       0.28325924
         0.13665347       0.16850510       0.19711597       0.23752439       0.26962849       0.30064759       0.31584254       0.30754912       0.29474261       0.26769254       0.24717954       0.23983212       0.24047470       0.22976497       0.23002958       0.24172701       0.25627139       0.26329491       0.24035904       0.21705115       0.19860125       0.19600725       0.19375955       0.19513211       0.21023589       0.20886882       0.18577701       0.17085394       0.15253030       0.14066592       0.12711562       0.12739234       0.13367768       0.12065753       0.11492171       0.11150346       0.12407625       0.13315168       0.14542140       0.15871699       0.16741215       0.18212217       0.18367590       0.17279263       0.16228747       0.15642855       0.15100928       0.14723353       0.15527254       0.18583651       0.21601133       0.24651605       0.26784629       0.28663573       0.29886067       0.29812485       0.29397410       0.29222631       0.27078581       0.25437823       0.23825581       0.21380185       0.19088233       0.18817657       0.17770064       0.15599489       0.12762332       0.11987755       0.12681814       0.12856127       0.12208304       0.11740309       0.09573135       0.07494978       0.04014081       0.02584018       0.01226307  9.09124734E-04       0.00418527       0.03503314       0.08305420       0.13894318       0.19590116       0.24975246       0.28637189       0.30564493       0.31600651       0.33456460       0.34323296       0.34801507       0.35129052       0.34629610       0.32717136       0.31366089       0.30064058       0.29641369       0.28365442       0.29315951       0.29162356       0.28327328
         0.14832038       0.17548835       0.20465262       0.24844855       0.28355554       0.31714904       0.31699142       0.31715885       0.31035364       0.29180464       0.27209806       0.27188787       0.26290882       0.26292562       0.27770624       0.28342721       0.27670220       0.27560842       0.25731656       0.23088914       0.19565107       0.19458333       0.18934926       0.19402112       0.19699915       0.19228871       0.17349264       0.14734450       0.12552303       0.11632124       0.10006073       0.11604457       0.12286299       0.12288719       0.11567409       0.11875717       0.13456611       0.14815299       0.16316170       0.18298078       0.19716789       0.20045887       0.20041662       0.19388270       0.17998527       0.17251219       0.17161654       0.16630785       0.17783688       0.19631760       0.23508906       0.26923141       0.28372371       0.30234465       0.32168683       0.32247803       0.31181556       0.29817200       0.26515874       0.23693521       0.21290144       0.19314398       0.17887306       0.17662814       0.18254897       0.17238998       0.15166433       0.15213121       0.14666742       0.14794241       0.15134323       0.13083328       0.11373728       0.09266207       0.06190573       0.04388985       0.02578616       0.01426484       0.01314168       0.03045875       0.09157030       0.14954813       0.20636356       0.25257182       0.28374475       0.30189386       0.32761168       0.34882838       0.35785383       0.36775520       0.36859939       0.36324269       0.34752348       0.33966023       0.33108169       0.31802696       0.31084949       0.30895132       0.30543852       0.29424581
         0.15974467       0.18519807       0.21079551       0.25077826       0.28302288       0.31586707       0.32569593       0.32749715       0.32243061       0.31682929       0.31220371       0.31698698       0.30619097       0.30024892       0.32573792       0.32255480       0.31232128       0.28945538       0.27063495       0.24533442       0.20464098       0.19272941       0.18713337       0.18014576       0.17656614       0.17437690       0.16074298       0.12904319       0.09840670       0.08718144       0.08574431       0.09217023       0.11188356       0.12436380       0.12094876       0.12213174       0.13149543       0.14711644       0.17857149       0.19857994       0.21115881       0.21654777       0.21286266       0.20649098       0.19562139       0.18838497       0.18857902       0.18612546       0.19905157       0.21517786       0.24561276       0.27210221       0.28752217       0.31088871       0.33747849       0.34284559       0.31858063       0.29908118       0.25816599       0.22434373       0.20214956       0.17776358       0.16623457       0.17555994       0.18234828       0.17575404       0.17193881       0.17678225       0.17251498       0.17422430       0.17073816       0.17584500       0.14990836       0.10868276       0.07288475       0.06261627       0.04737002       0.03674521       0.03628834       0.06276421       0.11597098       0.17525233       0.22260448       0.25235546       0.27973324       0.30006412       0.32352394       0.35137004       0.36701888       0.37258804       0.37454882       0.37291253       0.36258480       0.36097473       0.35681218       0.35787079       0.34400162       0.32758954       0.31854916       0.30591443
         0.17830631       0.19610478       0.21911177       0.24888545       0.28286156       0.31227434       0.33083576       0.34260762       0.34165886       0.34103620       0.34852481       0.34587830       0.34555537       0.33585352       0.34995151       0.34613264       0.32988554       0.30536172       0.28699747       0.24952319       0.20909058       0.19093856       0.17820291       0.15943328       0.14294611       0.14047514       0.13048111       0.10267480       0.06295691       0.04941366       0.05215220       0.06254196       0.07901930       0.10089362       0.11470422       0.12244115       0.13475794       0.15700629       0.18816333       0.20862389       0.21735844       0.22089830       0.22253408       0.21565349       0.20681237       0.19504692       0.19373237       0.19588858       0.20601209       0.22375005       0.25373280       0.27756596       0.28670949       0.29923755       0.31761330       0.30836380       0.29459840       0.28323135       0.24161410       0.20297918       0.17652005       0.16498810       0.16033340       0.16572429       0.18201005       0.19038245       0.18647242       0.18789129       0.19009590       0.19740264       0.20695446       0.21224387       0.18007915       0.13390376       0.10475501       0.09438003       0.07767578       0.06257185       0.07000700       0.09976117       0.14920057       0.18508440       0.23414823       0.26925758       0.28378034       0.29563639       0.31921691       0.34623253       0.36313784       0.36913720       0.37518200       0.37655747       0.37600055       0.37877670       0.38254485       0.38568869       0.36696294       0.35390171       0.33977443       0.31520766
         0.20301692       0.21912143       0.23502675       0.25042558       0.27632058       0.30998144       0.33095545       0.34535384       0.35237610       0.35360596       0.36400837       0.35969353       0.36272177       0.35714674       0.36012968       0.35380188       0.33071676       0.30380440       0.28186965       0.25424701       0.21686469       0.18280137       0.15836391       0.13116293       0.11049516       0.09517664       0.09074594       0.07309649       0.04459384       0.02604954       0.02327999       0.04037377       0.06625468       0.08670170       0.10601070       0.12218785       0.14059325       0.16084068       0.19262362       0.21331006       0.22876428       0.23147479       0.22826277       0.22046007       0.21148291       0.20295380       0.20381035       0.19998479       0.20283486       0.21560517       0.24399647       0.26408884       0.27455175       0.28855374       0.28176010       0.26545194       0.25675854       0.24307397       0.20875649       0.17993602       0.16551648       0.16541550       0.16946232       0.17196292       0.18860826       0.20916325       0.21894005       0.21092695       0.22396976       0.22164053       0.24235795       0.24342319       0.21393777       0.18315203       0.15900077       0.20414427       0.13679060       0.11784912       0.11013230       0.14638330       0.19192298       0.20485660       0.23041682       0.26341206       0.26939097       0.28172606       0.30602968       0.33046067       0.35058036       0.35611284       0.36731753       0.37582535       0.37931961       0.38003063       0.38368484       0.38307261       0.37908062       0.36640075       0.34550425       0.32400605
         0.19837037       0.21467729       0.23484921       0.24411435       0.26501453       0.30453056       0.33071178       0.36074731       0.36302638       0.36449492       0.37084782       0.35995692       0.36727658       0.36239746       0.35875759       0.34573486       0.31406704       0.29308394       0.27630258       0.26164174       0.23045611       0.19128770       0.15696211       0.12148874       0.09336194       0.07555803       0.05281281       0.03805330       0.02945631       0.02167849       0.03308678       0.04145615       0.05907850       0.07650699       0.10427443       0.12858176       0.14571227       0.17131008       0.19732256       0.21962839       0.23565960       0.23808303       0.23221546       0.22673979       0.21787100       0.20849423       0.20631088       0.20044307       0.19108911       0.19569091       0.21582858       0.23380962       0.25178090       0.25229481       0.24801052       0.22142711       0.20095654       0.18375339       0.15897501       0.14074424       0.13665254       0.15707238       0.16687241       0.18152609       0.20702022       0.22875530       0.23344854       0.22985333       0.24024846       0.25090584       0.25016150       0.26048914       0.25559878       0.23656757       0.20414427       0.20414427       0.18948698       0.16841577       0.15872067       0.19211988       0.22931676       0.24597190       0.25727764       0.26181746       0.26547781       0.27308261       0.28921393       0.30227503       0.32801834       0.34126681       0.34975678       0.36966270       0.37324870       0.37213540       0.38143495       0.38837498       0.38215446       0.37183708       0.34557948       0.32687026
         0.18732308       0.19774853       0.21570678       0.23575978       0.25365543       0.29066765       0.31545192       0.34859237       0.36509424       0.37436414       0.36042666       0.35293373       0.34949964       0.35514903       0.35689116       0.33665493       0.31251496       0.29805261       0.29025054       0.26926640       0.23461162       0.19792958       0.15569903       0.11562851       0.08448427       0.06241051       0.03513275       0.03266687       0.03094653       0.02321260       0.03388936       0.04640266       0.05729617       0.08590915       0.11176363       0.13050941       0.13965279       0.16659963       0.18828003       0.21668072       0.22920617       0.23492673       0.24010836       0.23163401       0.21639837       0.19759464       0.18582074       0.16703118       0.16809623       0.18116370       0.18729043       0.19109483       0.21156764       0.21109559       0.19610418       0.18457878       0.15687628       0.14506514       0.13405620       0.11915377       0.11437809       0.13784599       0.16384636       0.17971410       0.20690206       0.23085812       0.23451129       0.24160996       0.25817081       0.27399114       0.28205308       0.26864120       0.28438282       0.20414427       0.20414427       0.20414427       0.20414427       0.23144737       0.22831672       0.24144287       0.26569912       0.26472285       0.27289420       0.28003547       0.27429619       0.27242032       0.27575320       0.28360125       0.29187572       0.30076033       0.31959364       0.34305906       0.35663414       0.35950249       0.37971827       0.38554639       0.38032708       0.37955761       0.35624120       0.31927738
         0.16653456       0.17669332       0.18701048       0.21460319       0.23641755       0.26655704       0.30170149       0.32326820       0.34618849       0.35484812       0.34878516       0.33799911       0.32939261       0.33209714       0.33578014       0.31756210       0.30810308       0.30004233       0.28834406       0.25164011       0.21007431       0.17702386       0.14705358       0.11830910       0.08768637       0.06133288       0.03895895       0.03180445       0.02467040       0.03018818       0.03415924       0.04849792       0.06117795       0.11072317       0.13199747       0.14737462       0.15762915       0.17127949       0.18445039       0.21020412       0.22795238       0.24152990       0.23468857       0.22256117       0.21022233       0.19154999       0.16185510       0.14033736       0.14795879       0.15696961       0.14079204       0.13694024       0.15234494       0.15379390       0.14123006       0.13867871       0.12967017       0.12891878       0.11695988       0.10375491       0.11402430       0.13388968       0.14658655       0.17483188       0.19994889       0.22591436       0.24396746       0.25316620       0.26877540       0.29047096       0.30137238       0.30621451       0.20414427       0.20414427       0.20414427       0.20414427       0.20414427       0.29008985       0.28223383       0.29035342       0.29771355       0.28735441       0.29400527       0.28852880       0.26926759       0.25853989       0.25511205       0.25449604       0.24576212       0.25348946       0.29039794       0.31128889       0.33175734       0.35424262       0.36076137       0.36943105       0.36952600       0.34752771       0.31515244       0.27761507
         0.14729834       0.15219748       0.17180155       0.19934528       0.21705589       0.24575491       0.27592164       0.29365265       0.31262952       0.32304153       0.32077372       0.30346072       0.29846755       0.29143390       0.29108182       0.27318656       0.28313786       0.28075334       0.26511204       0.23115569       0.18781282       0.16683020       0.14647123       0.12912375       0.10819093       0.08701145       0.06308676       0.05506443       0.03324635       0.04373312       0.04587091       0.07917510       0.09904703       0.12220808       0.14132963       0.15785985       0.17062238       0.18561475       0.19253001       0.21199340       0.23323700       0.23794037       0.24256319       0.22434585       0.20423992       0.17984919       0.15983084       0.13803327       0.13118574       0.11872743       0.09236525       0.08205847       0.08886069       0.09682118       0.08848701       0.09410430       0.09177653       0.09781598       0.09981113       0.09410654       0.11275754       0.14473015       0.15545230       0.18414877       0.20180869       0.23582000       0.24838874       0.25776452       0.28324291       0.31461781       0.34061569       0.33962435       0.20414427       0.20414427       0.20414427       0.20414427       0.20414427       0.32407343       0.32527810       0.33309272       0.33342364       0.31549522       0.31005394       0.29282227       0.25731906       0.23990548       0.22721766       0.22188617       0.21283230       0.21960297       0.24823204       0.27318409       0.29451209       0.32034019       0.33361220       0.33806169       0.33224148       0.30773199       0.28290159       0.23871490