# File generated by Flopy version 3.9.5 on 12/11/2025 at 15:17:39.
BEGIN options
END options

BEGIN griddata
  strt
    CONSTANT      10.00000000
END griddata

