# File generated by Flopy version 3.9.3 on 07/23/2025 at 15:52:26.
BEGIN options
  SAVE_FLOWS
END options

BEGIN sources
  CHD-1  AUX  TEMPERATURE
  CHD-2  AUX  TEMPERATURE
  WEL-INJ  AUX  TEMPERATURE
END sources

