# File generated by Flopy version 3.9.2 on 03/25/2025 at 16:05:11.
BEGIN options
END options

BEGIN timing
  TDIS6  sim_test.tdis
END timing

BEGIN models
  gwe6  gwe-sim_test.nam  gwe-sim_test
END models

BEGIN exchanges
END exchanges

BEGIN solutiongroup  1
  ims6  sim_test.ims  gwe-sim_test
END solutiongroup  1

