# File generated by Flopy version 3.9.5 on 12/11/2025 at 15:17:39.
BEGIN options
END options

BEGIN timing
  TDIS6  sim_test.tdis
END timing

BEGIN models
  gwe6  gwe-sim_test.nam  gwe-sim_test
END models

BEGIN exchanges
END exchanges

BEGIN solutiongroup  1
  ims6  sim_test.ims  gwe-sim_test
END solutiongroup  1

