# File generated by Flopy version 3.9.1 on 04/22/2025 at 12:10:40.
BEGIN options
  PRINT_OPTION  summary
  COMPLEXITY  moderate
END options

