# File generated by Flopy version 3.9.5 on 11/03/2025 at 10:10:56.
BEGIN options
  TIME_UNITS  seconds
END options

BEGIN dimensions
  NPER  1
END dimensions

BEGIN perioddata
  4.32000000E+07  50       1.00000000
END perioddata

