# File generated by Flopy version 3.9.5 on 11/03/2025 at 10:10:56.
BEGIN options
  PRINT_OPTION  summary
  COMPLEXITY  moderate
END options

