# File generated by Flopy version 3.9.2 on 03/11/2025 at 14:18:17.
BEGIN options
  TIME_UNITS  seconds
END options

BEGIN dimensions
  NPER  1
END dimensions

BEGIN perioddata
  4.32000000E+07  50       1.00000000
END perioddata

