# File generated by Flopy version 3.9.2 on 03/25/2025 at 16:05:11.
BEGIN options
  PRINT_OPTION  summary
  COMPLEXITY  moderate
END options

