# File generated by Flopy version 3.9.1 on 06/09/2025 at 12:54:55.
BEGIN options
  TIME_UNITS  seconds
END options

BEGIN dimensions
  NPER  1
END dimensions

BEGIN perioddata
  8.64000000E+08  50       1.20000000
END perioddata

