# File generated by Flopy version 3.9.2 on 03/11/2025 at 14:18:17.
BEGIN options
  PRINT_OPTION  summary
  COMPLEXITY  moderate
END options

