# File generated by Flopy version 3.9.3 on 07/23/2025 at 15:52:26.
BEGIN options
  TIME_UNITS  seconds
END options

BEGIN dimensions
  NPER  1
END dimensions

BEGIN perioddata
  4.32000000E+07  50       1.00000000
END perioddata

