# File generated by Flopy version 3.9.3 on 10/06/2025 at 15:29:42.
BEGIN options
  TIME_UNITS  seconds
END options

BEGIN dimensions
  NPER  1
END dimensions

BEGIN perioddata
  8.64000000E+08  50       1.20000000
END perioddata

