# File generated by Flopy version 3.9.5 on 12/11/2025 at 15:17:39.
BEGIN options
  TIME_UNITS  seconds
END options

BEGIN dimensions
  NPER  1
END dimensions

BEGIN perioddata
  4.32000000E+07  50       1.00000000
END perioddata

