# File generated by Flopy version 3.9.2 on 03/25/2025 at 16:05:11.
BEGIN options
  TIME_UNITS  seconds
END options

BEGIN dimensions
  NPER  1
END dimensions

BEGIN perioddata
  4.32000000E+07  50       1.00000000
END perioddata

