# File generated by Flopy version 3.9.2 on 05/13/2025 at 15:46:05.
BEGIN options
  COMPLEXITY  moderate
END options

BEGIN linear
  INNER_DVCLOSE  1.00000000E-05
END linear

