# File generated by Flopy version 3.9.2 on 05/20/2025 at 15:04:33.
BEGIN options
  auxiliary  Concentration
  PRINT_INPUT
  PRINT_FLOWS
  SAVE_FLOWS
END options

BEGIN dimensions
  MAXBOUND  1
END dimensions

BEGIN period  1
  3 26 51 1.00000000E-03 10
END period  1

