# File generated by Flopy version 3.9.2 on 05/20/2025 at 15:04:32.
BEGIN options
END options

BEGIN griddata
  strt
    CONSTANT       1.00000000
END griddata

