# File generated by Flopy version 3.9.2 on 05/13/2025 at 15:46:05.
BEGIN options
  SAVE_FLOWS
  SAVE_SPECIFIC_DISCHARGE
  SAVE_SATURATION
END options

BEGIN griddata
  icelltype
    CONSTANT  0
  k  LAYERED
    INTERNAL  FACTOR  1.0
      1.49388230E-04  1.62978060E-04  1.98483467E-04  2.55080493E-04  3.06837988E-04  2.94781232E-04  2.40084555E-04  1.81044612E-04  1.28745363E-04  1.01325910E-04  1.10845838E-04  1.22320256E-04  1.51686414E-04  2.36249427E-04  3.74621712E-04  3.59022437E-04  2.77636253E-04  1.62404845E-04  8.18378830E-05  6.76483687E-05  6.83075777E-05  7.98401015E-05  1.11190340E-04  1.51948363E-04  2.39455068E-04  3.74151336E-04  5.27697965E-04  5.85225527E-04  6.57549943E-04  6.98304852E-04  6.18992490E-04  4.54182678E-04  2.28644320E-04  1.16117728E-04  5.85320959E-05  3.09703610E-05  1.68097358E-05  9.51746006E-06  6.34908065E-06  5.97976032E-06  7.98062683E-06  1.26547657E-05  1.66267037E-05  1.80323350E-05  1.84765340E-05  1.87219994E-05  1.77909715E-05  1.83022967E-05  1.81982941E-05  2.06496006E-05  2.35472871E-05  2.90110256E-05  4.12757836E-05  8.77568018E-05  2.16407439E-04  5.61101828E-04       0.00116723       0.00157187       0.00174328       0.00151588  8.53961741E-04  4.26314044E-04  2.52838014E-04  1.52182576E-04  1.26320243E-04  1.14008813E-04  1.13998314E-04  8.08394980E-05  5.46975643E-05  3.69649824E-05  2.08943711E-05  1.45852227E-05  1.06456955E-05  1.18663384E-05  1.99537299E-05  3.05091617E-05  4.17089759E-05  5.98103325E-05  9.12287796E-05  1.05562955E-04  8.11245773E-05  5.49012584E-05  5.13955056E-05  4.45468722E-05  4.32027482E-05  3.45656517E-05  3.72094437E-05  4.49078689E-05  6.60853693E-05  9.14836637E-05  1.43599333E-04  1.82280928E-04  1.66137703E-04  1.76210408E-04  2.16529050E-04  2.43534421E-04  2.10545215E-04  1.95325934E-04  2.37440428E-04  2.12532235E-04
      1.19252923E-04  1.48325722E-04  2.21483686E-04  3.20766238E-04  3.65044776E-04  3.90021742E-04  3.62619234E-04  3.10075731E-04  1.86507110E-04  1.33252412E-04  1.15279778E-04  1.22227910E-04  1.32598041E-04  1.72053711E-04  1.93710206E-04  2.26844029E-04  2.26597564E-04  1.49783169E-04  7.49133251E-05  5.67534080E-05  4.68496146E-05  4.65810626E-05  7.28269442E-05  1.13436647E-04  1.62044191E-04  2.63061491E-04  4.45726793E-04  5.04460593E-04  5.36127132E-04  5.55137580E-04  4.27407766E-04  2.88967625E-04  1.39284020E-04  6.12584845E-05  3.54651202E-05  2.10548114E-05  1.10104802E-05  5.96098016E-06  4.27969871E-06  4.52146287E-06  5.80663755E-06  1.10041874E-05  1.89196508E-05  2.20366019E-05  2.43333525E-05  2.40116842E-05  2.23769730E-05  1.78050486E-05  1.75510977E-05  2.00674076E-05  2.43973427E-05  3.40543957E-05  3.87169493E-05  6.31464936E-05  1.79550916E-04  4.48213599E-04       0.00100253       0.00151873       0.00195347       0.00164251  8.03814328E-04  3.78929195E-04  2.14828644E-04  1.16974079E-04  1.06668398E-04  1.02202030E-04  8.98878643E-05  5.48613134E-05  3.84390078E-05  2.36934429E-05  1.43742764E-05  8.52029279E-06  6.71795624E-06  7.45472835E-06  1.26766690E-05  1.93419437E-05  3.00767588E-05  4.34323629E-05  6.23201631E-05  9.13766999E-05  9.27059082E-05  8.67967974E-05  9.61464757E-05  8.07765682E-05  7.15061688E-05  6.16248217E-05  6.82558020E-05  7.45573343E-05  1.01899808E-04  1.35659953E-04  1.47376413E-04  1.28076761E-04  1.34834059E-04  1.49093117E-04  1.77201655E-04  1.64738667E-04  1.54289286E-04  1.71780193E-04  2.03075353E-04  2.07699093E-04
      1.03026883E-04  1.61641889E-04  2.10255734E-04  3.45236505E-04  3.94817296E-04  4.04032995E-04  3.70028603E-04  2.81362532E-04  2.02016323E-04  1.31426146E-04  9.53729104E-05  1.05610503E-04  9.95699520E-05  1.11804744E-04  1.42864650E-04  1.73797613E-04  1.57982577E-04  1.03923885E-04  6.68880821E-05  4.40294098E-05  3.48424437E-05  3.51470335E-05  5.95905985E-05  8.36651088E-05  1.15387971E-04  2.03690943E-04  3.61417333E-04  4.61188145E-04  4.53852146E-04  3.74987256E-04  2.80729873E-04  1.54620648E-04  7.09071101E-05  3.21443658E-05  2.13996300E-05  1.16261108E-05  7.13406416E-06  4.18346553E-06  3.28225042E-06  4.06379104E-06  5.57811381E-06  1.04005230E-05  1.72253112E-05  2.66218613E-05  2.47448534E-05  2.66790248E-05  2.45080573E-05  1.23249756E-05  1.39526119E-05  2.16041881E-05  2.70767323E-05  3.21314546E-05  3.83325059E-05  5.85156449E-05  1.19755037E-04  3.22039763E-04  7.75357708E-04       0.00142794       0.00171025       0.00145126  8.09401157E-04  3.20534687E-04  1.74495857E-04  1.06119493E-04  9.56754157E-05  7.97813555E-05  6.68106950E-05  4.34859612E-05  2.80514541E-05  1.68596271E-05  1.03471430E-05  6.52550261E-06  5.56507121E-06  5.13848681E-06  6.82403970E-06  1.09330758E-05  1.81614487E-05  2.71151403E-05  4.07443076E-05  6.80785452E-05  8.85045447E-05  9.66233856E-05  1.26369079E-04  1.50319378E-04  1.30850924E-04  1.35878159E-04  1.46441074E-04  1.48155654E-04  1.45719867E-04  1.62864817E-04  1.43648460E-04  1.23176316E-04  1.16029223E-04  1.14284274E-04  1.21182304E-04  1.25805425E-04  1.58728668E-04  1.76610381E-04  1.75893554E-04  1.95901492E-04
      7.19719028E-05  1.04852021E-04  1.94032982E-04  2.95938778E-04  4.90057981E-04  6.44416315E-04  4.96642722E-04  3.49599257E-04  2.08154786E-04  1.27568434E-04  8.75165497E-05  8.13861698E-05  8.34413877E-05  9.03825785E-05  1.08797954E-04  1.33385474E-04  1.27231033E-04  8.46426701E-05  5.51989542E-05  5.09544552E-05  4.92567087E-05  4.01358302E-05  5.08264566E-05  6.64269028E-05  9.45027932E-05  1.69976527E-04  3.22934357E-04  4.58451832E-04  4.45087237E-04  3.03089677E-04  1.89629485E-04  9.71322297E-05  4.46856393E-05  2.57896554E-05  1.72114032E-05  9.88874945E-06  6.25134362E-06  3.78706363E-06  2.95141172E-06  3.84757823E-06  5.98179213E-06  1.12675598E-05  1.70139429E-05  2.49288878E-05  2.20698203E-05  1.92573461E-05  1.80655843E-05  1.24488324E-05  1.43971320E-05  2.29558773E-05  2.63626061E-05  3.36551711E-05  4.07315347E-05  7.47221202E-05  1.31776236E-04  2.86866270E-04  7.18245807E-04       0.00116706       0.00133422       0.00107474  6.06211135E-04  2.52530357E-04  1.33633497E-04  8.65434486E-05  8.07265751E-05  7.48160674E-05  6.08859555E-05  3.82464423E-05  2.57914908E-05  1.57718787E-05  9.52022219E-06  6.25280290E-06  5.11546250E-06  4.29972761E-06  4.32214711E-06  6.64153549E-06  1.02269132E-05  1.61386506E-05  2.65034632E-05  4.53274406E-05  7.99945046E-05  9.67919405E-05  1.42125748E-04  1.94808177E-04  1.97304864E-04  2.67675525E-04  2.79545871E-04  2.42144568E-04  2.35957865E-04  2.06249737E-04  1.56224021E-04  1.16901872E-04  1.11521120E-04  9.75659495E-05  1.04783619E-04  1.02922058E-04  1.38724936E-04  1.43700439E-04  1.61823889E-04  2.23001363E-04
      4.74724693E-05  7.78034955E-05  1.66667363E-04  2.90936674E-04  5.43539238E-04  6.27014088E-04  6.72748545E-04  4.60287236E-04  2.18287416E-04  1.83669094E-04  1.27734544E-04  8.42254522E-05  7.78771864E-05  7.77133173E-05  9.09047449E-05  1.11204652E-04  1.00746169E-04  8.42232257E-05  6.69151050E-05  6.93123002E-05  6.74138792E-05  5.70116754E-05  6.04225970E-05  6.79958976E-05  9.21531682E-05  1.40328470E-04  2.77769053E-04  3.47466499E-04  3.42496234E-04  2.62652815E-04  1.75275432E-04  7.89241676E-05  3.98059237E-05  1.97858317E-05  1.38776932E-05  9.03595264E-06  6.41931047E-06  4.36573373E-06  3.09236134E-06  4.09181666E-06  7.66211178E-06  1.33069361E-05  2.02413175E-05  2.35579282E-05  2.23271963E-05  1.71972661E-05  1.72293439E-05  1.27094891E-05  1.37360903E-05  2.10019225E-05  2.49303412E-05  3.63693216E-05  5.77072096E-05  9.63321945E-05  1.54350535E-04  3.22966895E-04  6.21938438E-04  8.72839941E-04  7.84068368E-04  7.08118896E-04  5.06768643E-04  2.81155342E-04  1.42007528E-04  9.14525881E-05  7.52127817E-05  5.51120975E-05  3.42108942E-05  2.94554920E-05  2.74042723E-05  1.67792678E-05  1.14801705E-05  8.08758159E-06  6.44457168E-06  5.09432311E-06  3.95412872E-06  4.84645807E-06  7.02167199E-06  9.17894613E-06  1.57406157E-05  2.94678848E-05  5.30532270E-05  8.32450314E-05  1.56406764E-04  2.44613650E-04  3.34751763E-04  4.39312542E-04  4.51075233E-04  4.09426080E-04  3.71439353E-04  3.10934876E-04  1.85780998E-04  1.22768848E-04  1.21497207E-04  1.01771853E-04  1.00317688E-04  9.37637669E-05  1.14775037E-04  1.61630480E-04  1.71277861E-04  2.13407518E-04
      3.83083971E-05  6.34987664E-05  1.33789319E-04  2.66344810E-04  4.15209739E-04  5.16992761E-04  5.46977157E-04  3.98392905E-04  2.55078310E-04  1.91446103E-04  1.35987269E-04  1.10171561E-04  8.04066804E-05  7.65777440E-05  7.59250179E-05  8.47695701E-05  1.04912076E-04  1.03986647E-04  8.74343168E-05  8.86116031E-05  9.43244086E-05  8.42454756E-05  7.23230623E-05  7.25951177E-05  8.11464852E-05  1.35056573E-04  2.05830263E-04  2.71840050E-04  2.56406638E-04  2.03398595E-04  1.62096752E-04  8.19570414E-05  3.68634501E-05  1.77149977E-05  1.35330101E-05  1.26334644E-05  9.11185271E-06  7.03957630E-06  5.82522171E-06  7.40617088E-06  1.34209458E-05  2.23543284E-05  2.47285516E-05  2.19562407E-05  2.08197362E-05  1.59240844E-05  1.74703091E-05  1.34987749E-05  1.27282665E-05  1.91198760E-05  2.96840444E-05  4.66139172E-05  7.75403751E-05  1.31727691E-04  2.23878204E-04  3.26090405E-04  4.67975391E-04  5.85179834E-04  4.99291811E-04  4.95861110E-04  4.31020715E-04  2.61727982E-04  1.60136216E-04  1.20550540E-04  6.79490913E-05  4.26775914E-05  2.81442972E-05  2.27380315E-05  2.45964256E-05  1.95399844E-05  1.38302312E-05  1.26602790E-05  9.34171567E-06  6.49402864E-06  3.80860865E-06  3.93653954E-06  4.15317982E-06  5.55373663E-06  1.01295982E-05  1.88035738E-05  3.41069899E-05  6.70474692E-05  1.28358821E-04  2.12903105E-04  3.82598548E-04  6.53161958E-04  6.70197536E-04  6.40253944E-04  5.04495169E-04  3.61742394E-04  2.62575079E-04  1.72026819E-04  1.48904015E-04  1.19104181E-04  1.24853919E-04  1.27068095E-04  1.32658664E-04  1.58165567E-04  1.83432785E-04  2.07192177E-04
      3.99052515E-05  7.67896054E-05  1.43635712E-04  2.52928119E-04  3.35845107E-04  4.03450656E-04  4.42764926E-04  3.48326896E-04  2.57027656E-04  1.88921156E-04  1.27691281E-04  1.12765061E-04  9.75678631E-05  8.40799839E-05  6.52140807E-05  7.23543999E-05  1.06907377E-04  1.36900460E-04  1.33231355E-04  1.21544865E-04  1.15879535E-04  9.40421305E-05  8.94750046E-05  9.43527484E-05  1.03013561E-04  1.37258190E-04  1.72619082E-04  2.29170342E-04  1.70151136E-04  1.61158736E-04  1.35145019E-04  7.64809374E-05  4.20138749E-05  2.28726003E-05  1.40152924E-05  1.41460077E-05  1.06872030E-05  9.24936103E-06  9.89326873E-06  1.30236122E-05  2.32064504E-05  3.22325723E-05  3.14313838E-05  2.53951112E-05  2.56590538E-05  2.45061110E-05  2.17478610E-05  1.65663969E-05  1.82167405E-05  2.60225734E-05  4.02936457E-05  6.52766903E-05  1.28052387E-04  2.28765100E-04  3.00750427E-04  4.44371457E-04  5.18660527E-04  5.13330044E-04  4.63079574E-04  4.56959708E-04  4.11935296E-04  2.72200443E-04  1.76810659E-04  1.24631770E-04  8.63825408E-05  4.53510766E-05  2.71323497E-05  2.12560808E-05  2.33454230E-05  2.13325566E-05  1.76612484E-05  1.62284996E-05  1.24817343E-05  8.06900061E-06  5.57755493E-06  4.70238774E-06  4.23933443E-06  4.71519706E-06  7.43111059E-06  1.22979664E-05  2.61341593E-05  5.47511117E-05  1.15496354E-04  1.51208980E-04  2.54544051E-04  4.74878907E-04  6.83542632E-04  7.57334696E-04  7.23276578E-04  5.69408294E-04  4.12486232E-04  2.93207675E-04  2.32205726E-04  1.74897534E-04  1.74518020E-04  1.88154314E-04  1.61834920E-04  1.69302148E-04  1.92245570E-04  2.24161922E-04
      3.92596558E-05  8.35398605E-05  1.50397376E-04  2.37812928E-04  3.18426377E-04  4.60901181E-04  4.80172370E-04  3.77541379E-04  3.03836830E-04  1.95117609E-04  1.45602011E-04  1.27857755E-04  1.03187667E-04  8.03281800E-05  6.88387954E-05  9.52832852E-05  1.31491382E-04  1.65730467E-04  1.62582364E-04  1.64275829E-04  1.39505530E-04  1.16949923E-04  9.95530136E-05  1.01907855E-04  1.07218650E-04  1.27712279E-04  1.21750803E-04  1.34600370E-04  1.19475008E-04  9.93681097E-05  8.42557856E-05  8.39837085E-05  6.38214406E-05  3.95783827E-05  2.43204977E-05  1.83737302E-05  1.64241264E-05  1.64544635E-05  2.22610579E-05  2.47731805E-05  3.58725119E-05  4.85161800E-05  5.12002043E-05  4.06259824E-05  3.93536066E-05  3.68022884E-05  2.75516359E-05  2.28414065E-05  2.97826737E-05  4.39333307E-05  7.73295760E-05  1.29716806E-04  2.02619703E-04  2.82424677E-04  3.75490199E-04  4.62790427E-04  4.39602358E-04  4.76219488E-04  3.46902612E-04  3.49393988E-04  3.28737660E-04  2.37234170E-04  1.72594504E-04  1.22042002E-04  8.86036869E-05  4.53645225E-05  2.33515493E-05  1.92016505E-05  2.32892780E-05  2.43108225E-05  2.47166990E-05  2.50434696E-05  1.79317321E-05  1.02269059E-05  6.54805126E-06  5.98872657E-06  5.14687690E-06  4.93025527E-06  6.41023962E-06  1.15520943E-05  2.37817567E-05  5.46444753E-05  9.83874997E-05  1.51700748E-04  2.53472128E-04  4.03805287E-04  5.11940685E-04  7.17197428E-04  8.47527350E-04  8.19490058E-04  6.88462693E-04  6.95776951E-04  4.77882772E-04  3.37300065E-04  3.16910999E-04  3.10551783E-04  2.18679925E-04  2.09004051E-04  2.65460054E-04  2.73667101E-04
      4.83487565E-05  7.73754946E-05  1.22995087E-04  1.93739019E-04  2.66682968E-04  3.59649363E-04  4.43521887E-04  3.80154961E-04  3.58100689E-04  2.51764402E-04  1.71842665E-04  1.64138532E-04  1.40604185E-04  9.92846908E-05  9.04671833E-05  1.15146606E-04  1.72082524E-04  2.33776111E-04  2.23324532E-04  1.83178927E-04  1.60315554E-04  1.24091239E-04  1.05503968E-04  8.58076091E-05  9.41733961E-05  9.58354212E-05  8.01353526E-05  8.37103507E-05  8.21134308E-05  7.31429827E-05  6.35280812E-05  8.47417687E-05  7.23238772E-05  6.09510716E-05  3.94176022E-05  2.56785697E-05  2.33115934E-05  2.66916813E-05  3.85653111E-05  5.33840030E-05  6.58869685E-05  7.06975407E-05  8.04543743E-05  6.07344300E-05  5.53181271E-05  5.32159902E-05  4.37659910E-05  3.83100451E-05  4.35942347E-05  7.19035233E-05  1.40620337E-04  2.42642403E-04  3.56390636E-04  4.88704653E-04  5.35584812E-04  4.58844122E-04  4.02517733E-04  4.78281756E-04  3.09169700E-04  2.55816180E-04  2.46630399E-04  1.70584579E-04  1.22987854E-04  1.16136092E-04  9.62936756E-05  6.31817238E-05  3.55517404E-05  2.90145272E-05  3.09312527E-05  3.51149720E-05  3.75275922E-05  3.64869156E-05  2.43346494E-05  1.38920104E-05  8.76446029E-06  7.62227091E-06  6.60047544E-06  5.74195883E-06  6.43622116E-06  1.06752204E-05  2.04808566E-05  4.33153873E-05  9.21668543E-05  1.70410756E-04  2.23316820E-04  3.11764830E-04  4.29573265E-04  7.11011468E-04  9.99353942E-04       0.00118437       0.00121088       0.00103329  8.29278433E-04  6.28569280E-04  5.29684068E-04  4.89771483E-04  3.35254794E-04  3.32350697E-04  3.75136588E-04  2.88874580E-04
      4.84548800E-05  6.81756501E-05  9.43646373E-05  2.03071468E-04  2.98641389E-04  4.17943869E-04  4.42319608E-04  4.48145380E-04  4.49017214E-04  3.64393578E-04  2.53888080E-04  2.25224969E-04  2.14537402E-04  1.68991697E-04  2.01452975E-04  2.13606167E-04  2.36554959E-04  2.52027501E-04  3.00642831E-04  2.27458106E-04  1.40195843E-04  1.23576581E-04  9.17100770E-05  7.02496181E-05  6.55836557E-05  6.81633392E-05  5.74481019E-05  4.66550628E-05  5.70955272E-05  6.07454640E-05  6.58729696E-05  7.64640354E-05  7.89435362E-05  6.80795056E-05  4.52452659E-05  3.32183954E-05  3.20726795E-05  3.85755302E-05  5.75903578E-05  9.32980984E-05  1.14868955E-04  9.78900061E-05  8.54975660E-05  7.15254646E-05  6.37718549E-05  6.29039350E-05  6.45710461E-05  5.69844269E-05  7.83444484E-05  1.16248091E-04  2.07612058E-04  3.82611644E-04  5.51143661E-04  6.82891987E-04  7.64790515E-04  7.13041984E-04  5.58216067E-04  5.30984777E-04  3.05714027E-04  2.05597084E-04  1.49961852E-04  1.12221074E-04  9.67357555E-05  1.02521124E-04  1.06912863E-04  7.79843249E-05  5.25029100E-05  4.66817874E-05  4.28958010E-05  5.10354730E-05  5.81501336E-05  5.24986281E-05  3.78508703E-05  2.40213885E-05  1.52501534E-05  1.17466907E-05  9.07473077E-06  7.74627733E-06  7.56444842E-06  9.65433264E-06  2.08808633E-05  4.47379716E-05  9.29129965E-05  1.78071918E-04  2.36418957E-04  3.21584404E-04  5.08375582E-04  8.66832503E-04       0.00127753       0.00150452       0.00147531       0.00134432       0.00112247       0.00100001  8.24365765E-04  6.83442806E-04  6.01548818E-04  5.00552705E-04  5.16853179E-04  4.45958227E-04
      4.04361817E-05  5.54396211E-05  7.54881912E-05  1.69571606E-04  2.54748622E-04  3.84849322E-04  4.75856796E-04  6.07878144E-04  5.68369578E-04  5.08087047E-04  4.28852683E-04  4.00520075E-04  3.49581242E-04  2.33977538E-04  3.77901510E-04  4.39838419E-04  4.54283756E-04  4.21303761E-04  3.47614754E-04  2.42365117E-04  1.52422770E-04  1.01816040E-04  8.24210729E-05  6.17530241E-05  4.25305916E-05  4.36306582E-05  4.26231200E-05  3.79010453E-05  3.67871653E-05  4.33379864E-05  5.21173897E-05  6.63760002E-05  7.37513255E-05  6.11304204E-05  4.97393157E-05  3.60042832E-05  3.74310221E-05  4.72378924E-05  8.06378375E-05  1.18443655E-04  1.38449905E-04  1.28384214E-04  1.04726350E-04  8.53331367E-05  6.97201685E-05  6.74102848E-05  8.03137445E-05  7.72291751E-05  1.11310655E-04  1.51316970E-04  2.71145400E-04  4.42375429E-04  6.35893608E-04  7.19177362E-04  9.02371714E-04  8.58811312E-04  6.19015365E-04  5.28991164E-04  2.87522824E-04  1.50132822E-04  9.97360476E-05  7.03265177E-05  7.39795869E-05  1.01511388E-04  1.08861350E-04  8.39962231E-05  7.42599586E-05  7.68591999E-05  7.21969263E-05  7.48728417E-05  9.20059756E-05  1.14041439E-04  7.45924190E-05  3.76395947E-05  2.23080187E-05  1.93344313E-05  1.41021646E-05  1.15667781E-05  1.08786462E-05  1.55549315E-05  3.48057110E-05  6.10577335E-05  1.25896782E-04  1.78706265E-04  2.38646171E-04  3.61373299E-04  5.91418706E-04  9.54600342E-04       0.00164441       0.00182958       0.00166346       0.00154913       0.00155342       0.00151394       0.00135728       0.00132878       0.00106448  8.25146853E-04  8.44783906E-04  7.48418679E-04
      3.74064002E-05  4.58149334E-05  7.21771285E-05  1.29021093E-04  2.35931075E-04  3.49503971E-04  4.95137821E-04  7.33517227E-04  7.29642459E-04  7.39952957E-04  7.14797410E-04  6.40564191E-04  4.89875732E-04  4.94647247E-04  5.52422542E-04  6.52969407E-04  5.45850547E-04  4.34797577E-04  3.95036739E-04  2.49157776E-04  1.43835423E-04  8.93838805E-05  6.76467389E-05  4.22314552E-05  3.08018680E-05  2.82468882E-05  2.81150642E-05  2.48487850E-05  2.03398304E-05  2.14142456E-05  3.44049076E-05  3.96663781E-05  4.73748041E-05  4.59254697E-05  3.87038272E-05  4.17480514E-05  4.48155006E-05  6.08177943E-05  1.07914137E-04  1.35418246E-04  1.46810737E-04  1.23783204E-04  1.26004277E-04  1.09708315E-04  1.03068662E-04  9.10059753E-05  8.61559456E-05  1.00364901E-04  1.44944570E-04  1.91848783E-04  3.45597393E-04  5.46357420E-04  5.85710630E-04  6.54971460E-04  7.32625835E-04  6.35617529E-04  4.96833003E-04  4.66807134E-04  2.34822393E-04  1.04526589E-04  6.21290383E-05  5.87708964E-05  6.49295762E-05  7.82677962E-05  9.50163376E-05  1.04830331E-04  1.04657811E-04  1.08877299E-04  1.13463990E-04  1.18241645E-04  1.37282375E-04  1.97545480E-04  1.27959080E-04  7.07688523E-05  4.69590668E-05  3.52117895E-05  2.41794114E-05  1.83016509E-05  1.89982547E-05  2.71133813E-05  5.02964722E-05  7.47705635E-05  1.28543528E-04  2.20743852E-04  3.00411775E-04  4.29654610E-04  7.70346785E-04       0.00107383       0.00135326       0.00169416       0.00188524       0.00186461       0.00197072       0.00180975       0.00169159       0.00198012       0.00174173       0.00164623       0.00157224       0.00114185
      4.80183589E-05  5.65223527E-05  7.99568152E-05  1.18416698E-04  2.03722593E-04  3.34461394E-04  5.62912435E-04  8.23735085E-04  8.59663356E-04  8.20850779E-04  8.60167551E-04  8.40037130E-04  8.13565624E-04  8.07532575E-04  7.91241240E-04  8.47698946E-04  6.95090217E-04  4.75074427E-04  4.31669236E-04  2.75250175E-04  1.48400737E-04  7.45296638E-05  4.31445442E-05  2.40421432E-05  1.98063262E-05  1.68368315E-05  1.77176225E-05  1.35901373E-05  1.14585664E-05  1.30413691E-05  1.81337055E-05  2.92438890E-05  3.91815047E-05  3.82358230E-05  3.94243834E-05  4.34951653E-05  5.00662500E-05  7.22405530E-05  1.16718773E-04  1.44293939E-04  1.65500591E-04  1.37490555E-04  1.17824093E-04  1.27280000E-04  1.30300396E-04  1.22987913E-04  1.13770249E-04  1.12135014E-04  1.31921595E-04  1.62062250E-04  2.63893191E-04  4.02694946E-04  4.54638153E-04  4.53139452E-04  4.19474731E-04  3.57514800E-04  3.33556673E-04  2.72007746E-04  1.32774323E-04  7.23838893E-05  5.86747992E-05  6.05704263E-05  6.77794669E-05  7.16335198E-05  9.92493297E-05  1.42589386E-04  1.84295292E-04  1.67100399E-04  1.88621852E-04  1.88429796E-04  2.35623418E-04  2.63215072E-04  2.13972889E-04  1.35741604E-04  1.02514059E-04  3.40812311E-04  5.56151354E-05  3.83612569E-05  3.03171091E-05  4.72107095E-05  7.65696750E-05  8.10553756E-05  1.06541265E-04  1.70907151E-04  2.40119713E-04  3.48800415E-04  5.75108861E-04  7.65122415E-04  9.96591174E-04       0.00122631       0.00157806       0.00163453       0.00173683       0.00189057       0.00187246       0.00207142       0.00245522       0.00240226       0.00259047       0.00170785
      5.18958332E-05  6.75853953E-05  8.95779667E-05  1.11620524E-04  1.76421017E-04  3.55044554E-04  6.47496141E-04  9.76532581E-04  8.98585015E-04  9.30371403E-04  9.16359015E-04  9.31775779E-04       0.00109032       0.00107725       0.00100589  8.39730608E-04  6.80772413E-04  4.87618556E-04  4.52036271E-04  3.06537317E-04  1.68855026E-04  7.77266687E-05  3.83509068E-05  2.01382372E-05  1.43494408E-05  1.31066263E-05  1.04885985E-05  8.80357948E-06  8.88817158E-06  1.08989589E-05  1.51634094E-05  2.40961872E-05  3.49905458E-05  3.69600348E-05  4.58516515E-05  5.32389604E-05  6.45738764E-05  8.89385628E-05  1.22000107E-04  1.32779503E-04  1.40244621E-04  1.28839296E-04  1.28772866E-04  1.38890129E-04  1.33825801E-04  1.27513951E-04  1.15143856E-04  1.12088906E-04  1.01830607E-04  1.04202845E-04  1.37297000E-04  1.95944958E-04  2.84334994E-04  2.63122784E-04  2.25163327E-04  1.64153244E-04  1.16830517E-04  8.75752448E-05  5.63031535E-05  3.90610003E-05  4.00347963E-05  5.38310087E-05  6.36015320E-05  8.02317663E-05  1.34058588E-04  1.99132788E-04  2.38642606E-04  2.38479726E-04  2.58874497E-04  2.42420821E-04  2.41762609E-04  3.16207734E-04  3.26970709E-04  2.64932518E-04  3.40812311E-04  3.40812311E-04  1.02475351E-04  6.59170619E-05  5.31039768E-05  8.00381604E-05  1.01683901E-04  1.17621028E-04  1.59647403E-04  1.72696993E-04  2.52800499E-04  3.14572360E-04  4.19573218E-04  4.46412916E-04  6.48275542E-04  8.25501687E-04       0.00108994       0.00147725       0.00162622       0.00164880       0.00219212       0.00296488       0.00325736       0.00373215       0.00295605       0.00198189
      5.21805232E-05  6.13419106E-05  7.86446690E-05  1.07371059E-04  1.56276627E-04  3.00270854E-04  4.95578512E-04  6.93685841E-04  9.69398767E-04       0.00114370       0.00108396       0.00112509  9.98142641E-04       0.00109562       0.00111353  8.43841466E-04  6.90027489E-04  6.62879320E-04  6.19453611E-04  3.55148775E-04  1.70417145E-04  8.43436428E-05  3.74644733E-05  1.91477047E-05  1.07742089E-05  9.26196844E-06  8.21253434E-06  7.97010398E-06  7.75288936E-06  9.99147505E-06  1.42259114E-05  2.88588344E-05  3.62465435E-05  5.03132942E-05  6.27392728E-05  7.16471914E-05  7.28153755E-05  9.42625775E-05  1.01598598E-04  1.17794421E-04  1.14796683E-04  1.15326548E-04  1.44499718E-04  1.52137611E-04  1.31748253E-04  1.02686885E-04  7.73136417E-05  6.14433811E-05  5.90516611E-05  7.27059087E-05  7.89290061E-05  8.23903247E-05  1.17695810E-04  1.22771628E-04  9.67701126E-05  6.86377825E-05  4.35170514E-05  3.42156090E-05  3.07076989E-05  2.49613695E-05  2.74300837E-05  3.81596037E-05  5.80537089E-05  8.03837102E-05  1.39578347E-04  2.11234204E-04  2.44718045E-04  2.83147732E-04  3.18823062E-04  3.42684332E-04  4.05193947E-04  3.78664292E-04  4.99223883E-04  3.40812311E-04  3.40812311E-04  3.40812311E-04  3.40812311E-04  1.39903321E-04  1.40898337E-04  1.53046843E-04  1.70425657E-04  1.62648968E-04  1.95698056E-04  2.65878101E-04  2.72725971E-04  3.19499319E-04  2.93698773E-04  3.45992506E-04  3.61106795E-04  4.16504219E-04  6.43068110E-04  9.98518430E-04       0.00124729       0.00145743       0.00216525       0.00335672       0.00322679       0.00276620       0.00239179       0.00171563
      4.34623944E-05  5.36694279E-05  6.21168219E-05  9.27521396E-05  1.34348302E-04  2.69988057E-04  4.49683925E-04  5.88318566E-04  8.75715981E-04       0.00102104       0.00119746       0.00101870  8.88484006E-04  8.76614475E-04  8.96929123E-04  7.04170729E-04  6.78209472E-04  6.51266193E-04  5.35102503E-04  2.82085064E-04  1.06873893E-04  5.20274843E-05  3.25138244E-05  1.92744264E-05  9.81688754E-06  7.40316182E-06  7.78464437E-06  8.23102982E-06  7.81576728E-06  9.78284606E-06  1.44907135E-05  3.24763678E-05  5.01012073E-05  8.36855397E-05  8.89782605E-05  9.29559465E-05  9.63883285E-05  1.00369529E-04  1.02081751E-04  1.11602967E-04  1.25065490E-04  1.41615776E-04  1.42324760E-04  1.40997974E-04  1.08799490E-04  8.16360043E-05  5.34378887E-05  3.82847247E-05  4.02593505E-05  5.02901567E-05  3.78840305E-05  3.38648024E-05  4.32554298E-05  4.33897585E-05  3.65657033E-05  3.01791242E-05  2.21756418E-05  2.10991166E-05  1.95884077E-05  1.95593293E-05  2.43601153E-05  3.05553222E-05  4.46301310E-05  7.41144031E-05  1.27625302E-04  2.20669768E-04  3.06920905E-04  3.72144685E-04  4.12996247E-04  4.51510045E-04  5.31335303E-04  6.61980012E-04  3.40812311E-04  3.40812311E-04  3.40812311E-04  3.40812311E-04  3.40812311E-04  3.24811204E-04  2.93022371E-04  3.34602490E-04  3.06271802E-04  2.46044423E-04  3.03530280E-04  3.32117052E-04  2.84687820E-04  2.52976024E-04  1.91976695E-04  2.18586079E-04  1.91503772E-04  1.95032902E-04  3.28538648E-04  5.69794618E-04  7.99056375E-04       0.00131726       0.00153353       0.00198322       0.00204353       0.00150064       0.00114626  8.14071100E-04
      3.24326102E-05  3.65761407E-05  4.65315206E-05  7.61061820E-05  1.24087819E-04  2.09564518E-04  3.46131506E-04  4.38973948E-04  6.28334237E-04  9.37605451E-04  8.73357756E-04  6.23354223E-04  5.64140966E-04  4.81697323E-04  4.33222594E-04  3.76557058E-04  4.43819590E-04  4.07670828E-04  3.38859449E-04  1.85891811E-04  7.28446539E-05  4.82563773E-05  3.29355607E-05  1.98667476E-05  1.24353874E-05  9.84823964E-06  9.22841537E-06  9.56174972E-06  1.13726683E-05  1.68280039E-05  2.28344034E-05  4.51621017E-05  7.94770167E-05  1.12600064E-04  1.23991806E-04  1.07407344E-04  1.11853238E-04  1.11242160E-04  1.07752770E-04  1.22768994E-04  1.61765201E-04  1.82160831E-04  1.90306586E-04  1.56103604E-04  1.00055629E-04  6.12461881E-05  5.17211993E-05  3.70055459E-05  3.14627468E-05  2.26972443E-05  1.54251211E-05  1.33762678E-05  1.60094805E-05  1.59245301E-05  1.59879364E-05  1.74226734E-05  1.59243500E-05  1.55770649E-05  1.56783917E-05  1.60306045E-05  1.98442085E-05  3.37691308E-05  4.65482553E-05  8.51832301E-05  1.35325346E-04  2.80389679E-04  3.53894051E-04  3.86539672E-04  4.38189716E-04  6.38043566E-04  9.49519395E-04       0.00105969  3.40812311E-04  3.40812311E-04  3.40812311E-04  3.40812311E-04  3.40812311E-04  5.80976077E-04  6.70155510E-04  7.76721630E-04  7.04039529E-04  4.69706720E-04  3.84694780E-04  3.48573492E-04  2.48272350E-04  1.94491819E-04  1.35519163E-04  1.18414428E-04  1.06326763E-04  1.18258031E-04  1.97023852E-04  2.99926120E-04  3.84857558E-04  6.33527699E-04  8.61206499E-04       0.00113347       0.00109055  7.22181110E-04  5.39439498E-04  3.24415538E-04
      1.31206070E-05  1.79125727E-05  2.67293526E-05  4.35656220E-05  8.78775973E-05  1.33989335E-04  2.11705279E-04  3.00435961E-04  4.63518372E-04  4.77731577E-04  4.25691716E-04  3.51927651E-04  2.77880696E-04  2.87055969E-04  2.37148328E-04  1.80203147E-04  1.94925262E-04  2.17129564E-04  1.85927114E-04  1.03260696E-04  4.97930305E-05  3.47649402E-05  3.32499912E-05  2.14730971E-05  1.82469485E-05  1.49845227E-05  1.20325540E-05  1.35568289E-05  1.60120762E-05  2.30923270E-05  3.43542270E-05  6.30773502E-05  9.74106151E-05  1.39888973E-04  1.50238659E-04  1.43224985E-04  1.12161724E-04  1.01642741E-04  1.24820363E-04  1.47089799E-04  1.83619995E-04  2.29287893E-04  2.04711570E-04  1.53481262E-04  8.25347233E-05  5.62738678E-05  4.09398781E-05  3.28469068E-05  2.30376136E-05  1.28744650E-05  7.05745015E-06  5.78045956E-06  6.38856409E-06  8.05610307E-06  1.05297586E-05  1.41768560E-05  1.20653613E-05  1.24355602E-05  1.34114980E-05  1.58494659E-05  1.93953165E-05  3.10786854E-05  5.62612440E-05  1.11706460E-04  1.95759581E-04  2.90680007E-04  3.95632582E-04  4.19574731E-04  5.94043930E-04       0.00101706       0.00152984       0.00164335  3.40812311E-04  3.40812311E-04  3.40812311E-04  3.40812311E-04  3.40812311E-04  9.29524831E-04       0.00118710       0.00147260       0.00132031  7.78962101E-04  5.28025907E-04  3.58023332E-04  1.73734326E-04  1.25226317E-04  7.44310382E-05  6.11833311E-05  5.03048323E-05  5.37078340E-05  1.03425358E-04  1.64237805E-04  2.05910590E-04  3.11050651E-04  4.05311963E-04  5.45107760E-04  5.42136491E-04  3.82122642E-04  3.03670182E-04  1.61857024E-04