# File generated by Flopy version 3.9.1 on 06/24/2025 at 08:47:05.
BEGIN options
  auxiliary  TEMPERATURE
  SAVE_FLOWS
END options

BEGIN dimensions
  MAXBOUND  2500
END dimensions

BEGIN period  1
  1 1 100 0 10
  1 2 100 0 10
  1 3 100 0 10
  1 4 100 0 10
  1 5 100 0 10
  1 6 100 0 10
  1 7 100 0 10
  1 8 100 0 10
  1 9 100 0 10
  1 10 100 0 10
  1 11 100 0 10
  1 12 100 0 10
  1 13 100 0 10
  1 14 100 0 10
  1 15 100 0 10
  1 16 100 0 10
  1 17 100 0 10
  1 18 100 0 10
  1 19 100 0 10
  1 20 100 0 10
  1 21 100 0 10
  1 22 100 0 10
  1 23 100 0 10
  1 24 100 0 10
  1 25 100 0 10
  1 26 100 0 10
  1 27 100 0 10
  1 28 100 0 10
  1 29 100 0 10
  1 30 100 0 10
  1 31 100 0 10
  1 32 100 0 10
  1 33 100 0 10
  1 34 100 0 10
  1 35 100 0 10
  1 36 100 0 10
  1 37 100 0 10
  1 38 100 0 10
  1 39 100 0 10
  1 40 100 0 10
  1 41 100 0 10
  1 42 100 0 10
  1 43 100 0 10
  1 44 100 0 10
  1 45 100 0 10
  1 46 100 0 10
  1 47 100 0 10
  1 48 100 0 10
  1 49 100 0 10
  1 50 100 0 10
  2 1 100 0 10
  2 2 100 0 10
  2 3 100 0 10
  2 4 100 0 10
  2 5 100 0 10
  2 6 100 0 10
  2 7 100 0 10
  2 8 100 0 10
  2 9 100 0 10
  2 10 100 0 10
  2 11 100 0 10
  2 12 100 0 10
  2 13 100 0 10
  2 14 100 0 10
  2 15 100 0 10
  2 16 100 0 10
  2 17 100 0 10
  2 18 100 0 10
  2 19 100 0 10
  2 20 100 0 10
  2 21 100 0 10
  2 22 100 0 10
  2 23 100 0 10
  2 24 100 0 10
  2 25 100 0 10
  2 26 100 0 10
  2 27 100 0 10
  2 28 100 0 10
  2 29 100 0 10
  2 30 100 0 10
  2 31 100 0 10
  2 32 100 0 10
  2 33 100 0 10
  2 34 100 0 10
  2 35 100 0 10
  2 36 100 0 10
  2 37 100 0 10
  2 38 100 0 10
  2 39 100 0 10
  2 40 100 0 10
  2 41 100 0 10
  2 42 100 0 10
  2 43 100 0 10
  2 44 100 0 10
  2 45 100 0 10
  2 46 100 0 10
  2 47 100 0 10
  2 48 100 0 10
  2 49 100 0 10
  2 50 100 0 10
  3 1 100 0 10
  3 2 100 0 10
  3 3 100 0 10
  3 4 100 0 10
  3 5 100 0 10
  3 6 100 0 10
  3 7 100 0 10
  3 8 100 0 10
  3 9 100 0 10
  3 10 100 0 10
  3 11 100 0 10
  3 12 100 0 10
  3 13 100 0 10
  3 14 100 0 10
  3 15 100 0 10
  3 16 100 0 10
  3 17 100 0 10
  3 18 100 0 10
  3 19 100 0 10
  3 20 100 0 10
  3 21 100 0 10
  3 22 100 0 10
  3 23 100 0 10
  3 24 100 0 10
  3 25 100 0 10
  3 26 100 0 10
  3 27 100 0 10
  3 28 100 0 10
  3 29 100 0 10
  3 30 100 0 10
  3 31 100 0 10
  3 32 100 0 10
  3 33 100 0 10
  3 34 100 0 10
  3 35 100 0 10
  3 36 100 0 10
  3 37 100 0 10
  3 38 100 0 10
  3 39 100 0 10
  3 40 100 0 10
  3 41 100 0 10
  3 42 100 0 10
  3 43 100 0 10
  3 44 100 0 10
  3 45 100 0 10
  3 46 100 0 10
  3 47 100 0 10
  3 48 100 0 10
  3 49 100 0 10
  3 50 100 0 10
  4 1 100 0 10
  4 2 100 0 10
  4 3 100 0 10
  4 4 100 0 10
  4 5 100 0 10
  4 6 100 0 10
  4 7 100 0 10
  4 8 100 0 10
  4 9 100 0 10
  4 10 100 0 10
  4 11 100 0 10
  4 12 100 0 10
  4 13 100 0 10
  4 14 100 0 10
  4 15 100 0 10
  4 16 100 0 10
  4 17 100 0 10
  4 18 100 0 10
  4 19 100 0 10
  4 20 100 0 10
  4 21 100 0 10
  4 22 100 0 10
  4 23 100 0 10
  4 24 100 0 10
  4 25 100 0 10
  4 26 100 0 10
  4 27 100 0 10
  4 28 100 0 10
  4 29 100 0 10
  4 30 100 0 10
  4 31 100 0 10
  4 32 100 0 10
  4 33 100 0 10
  4 34 100 0 10
  4 35 100 0 10
  4 36 100 0 10
  4 37 100 0 10
  4 38 100 0 10
  4 39 100 0 10
  4 40 100 0 10
  4 41 100 0 10
  4 42 100 0 10
  4 43 100 0 10
  4 44 100 0 10
  4 45 100 0 10
  4 46 100 0 10
  4 47 100 0 10
  4 48 100 0 10
  4 49 100 0 10
  4 50 100 0 10
  5 1 100 0 10
  5 2 100 0 10
  5 3 100 0 10
  5 4 100 0 10
  5 5 100 0 10
  5 6 100 0 10
  5 7 100 0 10
  5 8 100 0 10
  5 9 100 0 10
  5 10 100 0 10
  5 11 100 0 10
  5 12 100 0 10
  5 13 100 0 10
  5 14 100 0 10
  5 15 100 0 10
  5 16 100 0 10
  5 17 100 0 10
  5 18 100 0 10
  5 19 100 0 10
  5 20 100 0 10
  5 21 100 0 10
  5 22 100 0 10
  5 23 100 0 10
  5 24 100 0 10
  5 25 100 0 10
  5 26 100 0 10
  5 27 100 0 10
  5 28 100 0 10
  5 29 100 0 10
  5 30 100 0 10
  5 31 100 0 10
  5 32 100 0 10
  5 33 100 0 10
  5 34 100 0 10
  5 35 100 0 10
  5 36 100 0 10
  5 37 100 0 10
  5 38 100 0 10
  5 39 100 0 10
  5 40 100 0 10
  5 41 100 0 10
  5 42 100 0 10
  5 43 100 0 10
  5 44 100 0 10
  5 45 100 0 10
  5 46 100 0 10
  5 47 100 0 10
  5 48 100 0 10
  5 49 100 0 10
  5 50 100 0 10
  6 1 100 0 10
  6 2 100 0 10
  6 3 100 0 10
  6 4 100 0 10
  6 5 100 0 10
  6 6 100 0 10
  6 7 100 0 10
  6 8 100 0 10
  6 9 100 0 10
  6 10 100 0 10
  6 11 100 0 10
  6 12 100 0 10
  6 13 100 0 10
  6 14 100 0 10
  6 15 100 0 10
  6 16 100 0 10
  6 17 100 0 10
  6 18 100 0 10
  6 19 100 0 10
  6 20 100 0 10
  6 21 100 0 10
  6 22 100 0 10
  6 23 100 0 10
  6 24 100 0 10
  6 25 100 0 10
  6 26 100 0 10
  6 27 100 0 10
  6 28 100 0 10
  6 29 100 0 10
  6 30 100 0 10
  6 31 100 0 10
  6 32 100 0 10
  6 33 100 0 10
  6 34 100 0 10
  6 35 100 0 10
  6 36 100 0 10
  6 37 100 0 10
  6 38 100 0 10
  6 39 100 0 10
  6 40 100 0 10
  6 41 100 0 10
  6 42 100 0 10
  6 43 100 0 10
  6 44 100 0 10
  6 45 100 0 10
  6 46 100 0 10
  6 47 100 0 10
  6 48 100 0 10
  6 49 100 0 10
  6 50 100 0 10
  7 1 100 0 10
  7 2 100 0 10
  7 3 100 0 10
  7 4 100 0 10
  7 5 100 0 10
  7 6 100 0 10
  7 7 100 0 10
  7 8 100 0 10
  7 9 100 0 10
  7 10 100 0 10
  7 11 100 0 10
  7 12 100 0 10
  7 13 100 0 10
  7 14 100 0 10
  7 15 100 0 10
  7 16 100 0 10
  7 17 100 0 10
  7 18 100 0 10
  7 19 100 0 10
  7 20 100 0 10
  7 21 100 0 10
  7 22 100 0 10
  7 23 100 0 10
  7 24 100 0 10
  7 25 100 0 10
  7 26 100 0 10
  7 27 100 0 10
  7 28 100 0 10
  7 29 100 0 10
  7 30 100 0 10
  7 31 100 0 10
  7 32 100 0 10
  7 33 100 0 10
  7 34 100 0 10
  7 35 100 0 10
  7 36 100 0 10
  7 37 100 0 10
  7 38 100 0 10
  7 39 100 0 10
  7 40 100 0 10
  7 41 100 0 10
  7 42 100 0 10
  7 43 100 0 10
  7 44 100 0 10
  7 45 100 0 10
  7 46 100 0 10
  7 47 100 0 10
  7 48 100 0 10
  7 49 100 0 10
  7 50 100 0 10
  8 1 100 0 10
  8 2 100 0 10
  8 3 100 0 10
  8 4 100 0 10
  8 5 100 0 10
  8 6 100 0 10
  8 7 100 0 10
  8 8 100 0 10
  8 9 100 0 10
  8 10 100 0 10
  8 11 100 0 10
  8 12 100 0 10
  8 13 100 0 10
  8 14 100 0 10
  8 15 100 0 10
  8 16 100 0 10
  8 17 100 0 10
  8 18 100 0 10
  8 19 100 0 10
  8 20 100 0 10
  8 21 100 0 10
  8 22 100 0 10
  8 23 100 0 10
  8 24 100 0 10
  8 25 100 0 10
  8 26 100 0 10
  8 27 100 0 10
  8 28 100 0 10
  8 29 100 0 10
  8 30 100 0 10
  8 31 100 0 10
  8 32 100 0 10
  8 33 100 0 10
  8 34 100 0 10
  8 35 100 0 10
  8 36 100 0 10
  8 37 100 0 10
  8 38 100 0 10
  8 39 100 0 10
  8 40 100 0 10
  8 41 100 0 10
  8 42 100 0 10
  8 43 100 0 10
  8 44 100 0 10
  8 45 100 0 10
  8 46 100 0 10
  8 47 100 0 10
  8 48 100 0 10
  8 49 100 0 10
  8 50 100 0 10
  9 1 100 0 10
  9 2 100 0 10
  9 3 100 0 10
  9 4 100 0 10
  9 5 100 0 10
  9 6 100 0 10
  9 7 100 0 10
  9 8 100 0 10
  9 9 100 0 10
  9 10 100 0 10
  9 11 100 0 10
  9 12 100 0 10
  9 13 100 0 10
  9 14 100 0 10
  9 15 100 0 10
  9 16 100 0 10
  9 17 100 0 10
  9 18 100 0 10
  9 19 100 0 10
  9 20 100 0 10
  9 21 100 0 10
  9 22 100 0 10
  9 23 100 0 10
  9 24 100 0 10
  9 25 100 0 10
  9 26 100 0 10
  9 27 100 0 10
  9 28 100 0 10
  9 29 100 0 10
  9 30 100 0 10
  9 31 100 0 10
  9 32 100 0 10
  9 33 100 0 10
  9 34 100 0 10
  9 35 100 0 10
  9 36 100 0 10
  9 37 100 0 10
  9 38 100 0 10
  9 39 100 0 10
  9 40 100 0 10
  9 41 100 0 10
  9 42 100 0 10
  9 43 100 0 10
  9 44 100 0 10
  9 45 100 0 10
  9 46 100 0 10
  9 47 100 0 10
  9 48 100 0 10
  9 49 100 0 10
  9 50 100 0 10
  10 1 100 0 10
  10 2 100 0 10
  10 3 100 0 10
  10 4 100 0 10
  10 5 100 0 10
  10 6 100 0 10
  10 7 100 0 10
  10 8 100 0 10
  10 9 100 0 10
  10 10 100 0 10
  10 11 100 0 10
  10 12 100 0 10
  10 13 100 0 10
  10 14 100 0 10
  10 15 100 0 10
  10 16 100 0 10
  10 17 100 0 10
  10 18 100 0 10
  10 19 100 0 10
  10 20 100 0 10
  10 21 100 0 10
  10 22 100 0 10
  10 23 100 0 10
  10 24 100 0 10
  10 25 100 0 10
  10 26 100 0 10
  10 27 100 0 10
  10 28 100 0 10
  10 29 100 0 10
  10 30 100 0 10
  10 31 100 0 10
  10 32 100 0 10
  10 33 100 0 10
  10 34 100 0 10
  10 35 100 0 10
  10 36 100 0 10
  10 37 100 0 10
  10 38 100 0 10
  10 39 100 0 10
  10 40 100 0 10
  10 41 100 0 10
  10 42 100 0 10
  10 43 100 0 10
  10 44 100 0 10
  10 45 100 0 10
  10 46 100 0 10
  10 47 100 0 10
  10 48 100 0 10
  10 49 100 0 10
  10 50 100 0 10
  11 1 100 0 10
  11 2 100 0 10
  11 3 100 0 10
  11 4 100 0 10
  11 5 100 0 10
  11 6 100 0 10
  11 7 100 0 10
  11 8 100 0 10
  11 9 100 0 10
  11 10 100 0 10
  11 11 100 0 10
  11 12 100 0 10
  11 13 100 0 10
  11 14 100 0 10
  11 15 100 0 10
  11 16 100 0 10
  11 17 100 0 10
  11 18 100 0 10
  11 19 100 0 10
  11 20 100 0 10
  11 21 100 0 10
  11 22 100 0 10
  11 23 100 0 10
  11 24 100 0 10
  11 25 100 0 10
  11 26 100 0 10
  11 27 100 0 10
  11 28 100 0 10
  11 29 100 0 10
  11 30 100 0 10
  11 31 100 0 10
  11 32 100 0 10
  11 33 100 0 10
  11 34 100 0 10
  11 35 100 0 10
  11 36 100 0 10
  11 37 100 0 10
  11 38 100 0 10
  11 39 100 0 10
  11 40 100 0 10
  11 41 100 0 10
  11 42 100 0 10
  11 43 100 0 10
  11 44 100 0 10
  11 45 100 0 10
  11 46 100 0 10
  11 47 100 0 10
  11 48 100 0 10
  11 49 100 0 10
  11 50 100 0 10
  12 1 100 0 10
  12 2 100 0 10
  12 3 100 0 10
  12 4 100 0 10
  12 5 100 0 10
  12 6 100 0 10
  12 7 100 0 10
  12 8 100 0 10
  12 9 100 0 10
  12 10 100 0 10
  12 11 100 0 10
  12 12 100 0 10
  12 13 100 0 10
  12 14 100 0 10
  12 15 100 0 10
  12 16 100 0 10
  12 17 100 0 10
  12 18 100 0 10
  12 19 100 0 10
  12 20 100 0 10
  12 21 100 0 10
  12 22 100 0 10
  12 23 100 0 10
  12 24 100 0 10
  12 25 100 0 10
  12 26 100 0 10
  12 27 100 0 10
  12 28 100 0 10
  12 29 100 0 10
  12 30 100 0 10
  12 31 100 0 10
  12 32 100 0 10
  12 33 100 0 10
  12 34 100 0 10
  12 35 100 0 10
  12 36 100 0 10
  12 37 100 0 10
  12 38 100 0 10
  12 39 100 0 10
  12 40 100 0 10
  12 41 100 0 10
  12 42 100 0 10
  12 43 100 0 10
  12 44 100 0 10
  12 45 100 0 10
  12 46 100 0 10
  12 47 100 0 10
  12 48 100 0 10
  12 49 100 0 10
  12 50 100 0 10
  13 1 100 0 10
  13 2 100 0 10
  13 3 100 0 10
  13 4 100 0 10
  13 5 100 0 10
  13 6 100 0 10
  13 7 100 0 10
  13 8 100 0 10
  13 9 100 0 10
  13 10 100 0 10
  13 11 100 0 10
  13 12 100 0 10
  13 13 100 0 10
  13 14 100 0 10
  13 15 100 0 10
  13 16 100 0 10
  13 17 100 0 10
  13 18 100 0 10
  13 19 100 0 10
  13 20 100 0 10
  13 21 100 0 10
  13 22 100 0 10
  13 23 100 0 10
  13 24 100 0 10
  13 25 100 0 10
  13 26 100 0 10
  13 27 100 0 10
  13 28 100 0 10
  13 29 100 0 10
  13 30 100 0 10
  13 31 100 0 10
  13 32 100 0 10
  13 33 100 0 10
  13 34 100 0 10
  13 35 100 0 10
  13 36 100 0 10
  13 37 100 0 10
  13 38 100 0 10
  13 39 100 0 10
  13 40 100 0 10
  13 41 100 0 10
  13 42 100 0 10
  13 43 100 0 10
  13 44 100 0 10
  13 45 100 0 10
  13 46 100 0 10
  13 47 100 0 10
  13 48 100 0 10
  13 49 100 0 10
  13 50 100 0 10
  14 1 100 0 10
  14 2 100 0 10
  14 3 100 0 10
  14 4 100 0 10
  14 5 100 0 10
  14 6 100 0 10
  14 7 100 0 10
  14 8 100 0 10
  14 9 100 0 10
  14 10 100 0 10
  14 11 100 0 10
  14 12 100 0 10
  14 13 100 0 10
  14 14 100 0 10
  14 15 100 0 10
  14 16 100 0 10
  14 17 100 0 10
  14 18 100 0 10
  14 19 100 0 10
  14 20 100 0 10
  14 21 100 0 10
  14 22 100 0 10
  14 23 100 0 10
  14 24 100 0 10
  14 25 100 0 10
  14 26 100 0 10
  14 27 100 0 10
  14 28 100 0 10
  14 29 100 0 10
  14 30 100 0 10
  14 31 100 0 10
  14 32 100 0 10
  14 33 100 0 10
  14 34 100 0 10
  14 35 100 0 10
  14 36 100 0 10
  14 37 100 0 10
  14 38 100 0 10
  14 39 100 0 10
  14 40 100 0 10
  14 41 100 0 10
  14 42 100 0 10
  14 43 100 0 10
  14 44 100 0 10
  14 45 100 0 10
  14 46 100 0 10
  14 47 100 0 10
  14 48 100 0 10
  14 49 100 0 10
  14 50 100 0 10
  15 1 100 0 10
  15 2 100 0 10
  15 3 100 0 10
  15 4 100 0 10
  15 5 100 0 10
  15 6 100 0 10
  15 7 100 0 10
  15 8 100 0 10
  15 9 100 0 10
  15 10 100 0 10
  15 11 100 0 10
  15 12 100 0 10
  15 13 100 0 10
  15 14 100 0 10
  15 15 100 0 10
  15 16 100 0 10
  15 17 100 0 10
  15 18 100 0 10
  15 19 100 0 10
  15 20 100 0 10
  15 21 100 0 10
  15 22 100 0 10
  15 23 100 0 10
  15 24 100 0 10
  15 25 100 0 10
  15 26 100 0 10
  15 27 100 0 10
  15 28 100 0 10
  15 29 100 0 10
  15 30 100 0 10
  15 31 100 0 10
  15 32 100 0 10
  15 33 100 0 10
  15 34 100 0 10
  15 35 100 0 10
  15 36 100 0 10
  15 37 100 0 10
  15 38 100 0 10
  15 39 100 0 10
  15 40 100 0 10
  15 41 100 0 10
  15 42 100 0 10
  15 43 100 0 10
  15 44 100 0 10
  15 45 100 0 10
  15 46 100 0 10
  15 47 100 0 10
  15 48 100 0 10
  15 49 100 0 10
  15 50 100 0 10
  16 1 100 0 10
  16 2 100 0 10
  16 3 100 0 10
  16 4 100 0 10
  16 5 100 0 10
  16 6 100 0 10
  16 7 100 0 10
  16 8 100 0 10
  16 9 100 0 10
  16 10 100 0 10
  16 11 100 0 10
  16 12 100 0 10
  16 13 100 0 10
  16 14 100 0 10
  16 15 100 0 10
  16 16 100 0 10
  16 17 100 0 10
  16 18 100 0 10
  16 19 100 0 10
  16 20 100 0 10
  16 21 100 0 10
  16 22 100 0 10
  16 23 100 0 10
  16 24 100 0 10
  16 25 100 0 10
  16 26 100 0 10
  16 27 100 0 10
  16 28 100 0 10
  16 29 100 0 10
  16 30 100 0 10
  16 31 100 0 10
  16 32 100 0 10
  16 33 100 0 10
  16 34 100 0 10
  16 35 100 0 10
  16 36 100 0 10
  16 37 100 0 10
  16 38 100 0 10
  16 39 100 0 10
  16 40 100 0 10
  16 41 100 0 10
  16 42 100 0 10
  16 43 100 0 10
  16 44 100 0 10
  16 45 100 0 10
  16 46 100 0 10
  16 47 100 0 10
  16 48 100 0 10
  16 49 100 0 10
  16 50 100 0 10
  17 1 100 0 10
  17 2 100 0 10
  17 3 100 0 10
  17 4 100 0 10
  17 5 100 0 10
  17 6 100 0 10
  17 7 100 0 10
  17 8 100 0 10
  17 9 100 0 10
  17 10 100 0 10
  17 11 100 0 10
  17 12 100 0 10
  17 13 100 0 10
  17 14 100 0 10
  17 15 100 0 10
  17 16 100 0 10
  17 17 100 0 10
  17 18 100 0 10
  17 19 100 0 10
  17 20 100 0 10
  17 21 100 0 10
  17 22 100 0 10
  17 23 100 0 10
  17 24 100 0 10
  17 25 100 0 10
  17 26 100 0 10
  17 27 100 0 10
  17 28 100 0 10
  17 29 100 0 10
  17 30 100 0 10
  17 31 100 0 10
  17 32 100 0 10
  17 33 100 0 10
  17 34 100 0 10
  17 35 100 0 10
  17 36 100 0 10
  17 37 100 0 10
  17 38 100 0 10
  17 39 100 0 10
  17 40 100 0 10
  17 41 100 0 10
  17 42 100 0 10
  17 43 100 0 10
  17 44 100 0 10
  17 45 100 0 10
  17 46 100 0 10
  17 47 100 0 10
  17 48 100 0 10
  17 49 100 0 10
  17 50 100 0 10
  18 1 100 0 10
  18 2 100 0 10
  18 3 100 0 10
  18 4 100 0 10
  18 5 100 0 10
  18 6 100 0 10
  18 7 100 0 10
  18 8 100 0 10
  18 9 100 0 10
  18 10 100 0 10
  18 11 100 0 10
  18 12 100 0 10
  18 13 100 0 10
  18 14 100 0 10
  18 15 100 0 10
  18 16 100 0 10
  18 17 100 0 10
  18 18 100 0 10
  18 19 100 0 10
  18 20 100 0 10
  18 21 100 0 10
  18 22 100 0 10
  18 23 100 0 10
  18 24 100 0 10
  18 25 100 0 10
  18 26 100 0 10
  18 27 100 0 10
  18 28 100 0 10
  18 29 100 0 10
  18 30 100 0 10
  18 31 100 0 10
  18 32 100 0 10
  18 33 100 0 10
  18 34 100 0 10
  18 35 100 0 10
  18 36 100 0 10
  18 37 100 0 10
  18 38 100 0 10
  18 39 100 0 10
  18 40 100 0 10
  18 41 100 0 10
  18 42 100 0 10
  18 43 100 0 10
  18 44 100 0 10
  18 45 100 0 10
  18 46 100 0 10
  18 47 100 0 10
  18 48 100 0 10
  18 49 100 0 10
  18 50 100 0 10
  19 1 100 0 10
  19 2 100 0 10
  19 3 100 0 10
  19 4 100 0 10
  19 5 100 0 10
  19 6 100 0 10
  19 7 100 0 10
  19 8 100 0 10
  19 9 100 0 10
  19 10 100 0 10
  19 11 100 0 10
  19 12 100 0 10
  19 13 100 0 10
  19 14 100 0 10
  19 15 100 0 10
  19 16 100 0 10
  19 17 100 0 10
  19 18 100 0 10
  19 19 100 0 10
  19 20 100 0 10
  19 21 100 0 10
  19 22 100 0 10
  19 23 100 0 10
  19 24 100 0 10
  19 25 100 0 10
  19 26 100 0 10
  19 27 100 0 10
  19 28 100 0 10
  19 29 100 0 10
  19 30 100 0 10
  19 31 100 0 10
  19 32 100 0 10
  19 33 100 0 10
  19 34 100 0 10
  19 35 100 0 10
  19 36 100 0 10
  19 37 100 0 10
  19 38 100 0 10
  19 39 100 0 10
  19 40 100 0 10
  19 41 100 0 10
  19 42 100 0 10
  19 43 100 0 10
  19 44 100 0 10
  19 45 100 0 10
  19 46 100 0 10
  19 47 100 0 10
  19 48 100 0 10
  19 49 100 0 10
  19 50 100 0 10
  20 1 100 0 10
  20 2 100 0 10
  20 3 100 0 10
  20 4 100 0 10
  20 5 100 0 10
  20 6 100 0 10
  20 7 100 0 10
  20 8 100 0 10
  20 9 100 0 10
  20 10 100 0 10
  20 11 100 0 10
  20 12 100 0 10
  20 13 100 0 10
  20 14 100 0 10
  20 15 100 0 10
  20 16 100 0 10
  20 17 100 0 10
  20 18 100 0 10
  20 19 100 0 10
  20 20 100 0 10
  20 21 100 0 10
  20 22 100 0 10
  20 23 100 0 10
  20 24 100 0 10
  20 25 100 0 10
  20 26 100 0 10
  20 27 100 0 10
  20 28 100 0 10
  20 29 100 0 10
  20 30 100 0 10
  20 31 100 0 10
  20 32 100 0 10
  20 33 100 0 10
  20 34 100 0 10
  20 35 100 0 10
  20 36 100 0 10
  20 37 100 0 10
  20 38 100 0 10
  20 39 100 0 10
  20 40 100 0 10
  20 41 100 0 10
  20 42 100 0 10
  20 43 100 0 10
  20 44 100 0 10
  20 45 100 0 10
  20 46 100 0 10
  20 47 100 0 10
  20 48 100 0 10
  20 49 100 0 10
  20 50 100 0 10
  21 1 100 0 10
  21 2 100 0 10
  21 3 100 0 10
  21 4 100 0 10
  21 5 100 0 10
  21 6 100 0 10
  21 7 100 0 10
  21 8 100 0 10
  21 9 100 0 10
  21 10 100 0 10
  21 11 100 0 10
  21 12 100 0 10
  21 13 100 0 10
  21 14 100 0 10
  21 15 100 0 10
  21 16 100 0 10
  21 17 100 0 10
  21 18 100 0 10
  21 19 100 0 10
  21 20 100 0 10
  21 21 100 0 10
  21 22 100 0 10
  21 23 100 0 10
  21 24 100 0 10
  21 25 100 0 10
  21 26 100 0 10
  21 27 100 0 10
  21 28 100 0 10
  21 29 100 0 10
  21 30 100 0 10
  21 31 100 0 10
  21 32 100 0 10
  21 33 100 0 10
  21 34 100 0 10
  21 35 100 0 10
  21 36 100 0 10
  21 37 100 0 10
  21 38 100 0 10
  21 39 100 0 10
  21 40 100 0 10
  21 41 100 0 10
  21 42 100 0 10
  21 43 100 0 10
  21 44 100 0 10
  21 45 100 0 10
  21 46 100 0 10
  21 47 100 0 10
  21 48 100 0 10
  21 49 100 0 10
  21 50 100 0 10
  22 1 100 0 10
  22 2 100 0 10
  22 3 100 0 10
  22 4 100 0 10
  22 5 100 0 10
  22 6 100 0 10
  22 7 100 0 10
  22 8 100 0 10
  22 9 100 0 10
  22 10 100 0 10
  22 11 100 0 10
  22 12 100 0 10
  22 13 100 0 10
  22 14 100 0 10
  22 15 100 0 10
  22 16 100 0 10
  22 17 100 0 10
  22 18 100 0 10
  22 19 100 0 10
  22 20 100 0 10
  22 21 100 0 10
  22 22 100 0 10
  22 23 100 0 10
  22 24 100 0 10
  22 25 100 0 10
  22 26 100 0 10
  22 27 100 0 10
  22 28 100 0 10
  22 29 100 0 10
  22 30 100 0 10
  22 31 100 0 10
  22 32 100 0 10
  22 33 100 0 10
  22 34 100 0 10
  22 35 100 0 10
  22 36 100 0 10
  22 37 100 0 10
  22 38 100 0 10
  22 39 100 0 10
  22 40 100 0 10
  22 41 100 0 10
  22 42 100 0 10
  22 43 100 0 10
  22 44 100 0 10
  22 45 100 0 10
  22 46 100 0 10
  22 47 100 0 10
  22 48 100 0 10
  22 49 100 0 10
  22 50 100 0 10
  23 1 100 0 10
  23 2 100 0 10
  23 3 100 0 10
  23 4 100 0 10
  23 5 100 0 10
  23 6 100 0 10
  23 7 100 0 10
  23 8 100 0 10
  23 9 100 0 10
  23 10 100 0 10
  23 11 100 0 10
  23 12 100 0 10
  23 13 100 0 10
  23 14 100 0 10
  23 15 100 0 10
  23 16 100 0 10
  23 17 100 0 10
  23 18 100 0 10
  23 19 100 0 10
  23 20 100 0 10
  23 21 100 0 10
  23 22 100 0 10
  23 23 100 0 10
  23 24 100 0 10
  23 25 100 0 10
  23 26 100 0 10
  23 27 100 0 10
  23 28 100 0 10
  23 29 100 0 10
  23 30 100 0 10
  23 31 100 0 10
  23 32 100 0 10
  23 33 100 0 10
  23 34 100 0 10
  23 35 100 0 10
  23 36 100 0 10
  23 37 100 0 10
  23 38 100 0 10
  23 39 100 0 10
  23 40 100 0 10
  23 41 100 0 10
  23 42 100 0 10
  23 43 100 0 10
  23 44 100 0 10
  23 45 100 0 10
  23 46 100 0 10
  23 47 100 0 10
  23 48 100 0 10
  23 49 100 0 10
  23 50 100 0 10
  24 1 100 0 10
  24 2 100 0 10
  24 3 100 0 10
  24 4 100 0 10
  24 5 100 0 10
  24 6 100 0 10
  24 7 100 0 10
  24 8 100 0 10
  24 9 100 0 10
  24 10 100 0 10
  24 11 100 0 10
  24 12 100 0 10
  24 13 100 0 10
  24 14 100 0 10
  24 15 100 0 10
  24 16 100 0 10
  24 17 100 0 10
  24 18 100 0 10
  24 19 100 0 10
  24 20 100 0 10
  24 21 100 0 10
  24 22 100 0 10
  24 23 100 0 10
  24 24 100 0 10
  24 25 100 0 10
  24 26 100 0 10
  24 27 100 0 10
  24 28 100 0 10
  24 29 100 0 10
  24 30 100 0 10
  24 31 100 0 10
  24 32 100 0 10
  24 33 100 0 10
  24 34 100 0 10
  24 35 100 0 10
  24 36 100 0 10
  24 37 100 0 10
  24 38 100 0 10
  24 39 100 0 10
  24 40 100 0 10
  24 41 100 0 10
  24 42 100 0 10
  24 43 100 0 10
  24 44 100 0 10
  24 45 100 0 10
  24 46 100 0 10
  24 47 100 0 10
  24 48 100 0 10
  24 49 100 0 10
  24 50 100 0 10
  25 1 100 0 10
  25 2 100 0 10
  25 3 100 0 10
  25 4 100 0 10
  25 5 100 0 10
  25 6 100 0 10
  25 7 100 0 10
  25 8 100 0 10
  25 9 100 0 10
  25 10 100 0 10
  25 11 100 0 10
  25 12 100 0 10
  25 13 100 0 10
  25 14 100 0 10
  25 15 100 0 10
  25 16 100 0 10
  25 17 100 0 10
  25 18 100 0 10
  25 19 100 0 10
  25 20 100 0 10
  25 21 100 0 10
  25 22 100 0 10
  25 23 100 0 10
  25 24 100 0 10
  25 25 100 0 10
  25 26 100 0 10
  25 27 100 0 10
  25 28 100 0 10
  25 29 100 0 10
  25 30 100 0 10
  25 31 100 0 10
  25 32 100 0 10
  25 33 100 0 10
  25 34 100 0 10
  25 35 100 0 10
  25 36 100 0 10
  25 37 100 0 10
  25 38 100 0 10
  25 39 100 0 10
  25 40 100 0 10
  25 41 100 0 10
  25 42 100 0 10
  25 43 100 0 10
  25 44 100 0 10
  25 45 100 0 10
  25 46 100 0 10
  25 47 100 0 10
  25 48 100 0 10
  25 49 100 0 10
  25 50 100 0 10
  26 1 100 0 10
  26 2 100 0 10
  26 3 100 0 10
  26 4 100 0 10
  26 5 100 0 10
  26 6 100 0 10
  26 7 100 0 10
  26 8 100 0 10
  26 9 100 0 10
  26 10 100 0 10
  26 11 100 0 10
  26 12 100 0 10
  26 13 100 0 10
  26 14 100 0 10
  26 15 100 0 10
  26 16 100 0 10
  26 17 100 0 10
  26 18 100 0 10
  26 19 100 0 10
  26 20 100 0 10
  26 21 100 0 10
  26 22 100 0 10
  26 23 100 0 10
  26 24 100 0 10
  26 25 100 0 10
  26 26 100 0 10
  26 27 100 0 10
  26 28 100 0 10
  26 29 100 0 10
  26 30 100 0 10
  26 31 100 0 10
  26 32 100 0 10
  26 33 100 0 10
  26 34 100 0 10
  26 35 100 0 10
  26 36 100 0 10
  26 37 100 0 10
  26 38 100 0 10
  26 39 100 0 10
  26 40 100 0 10
  26 41 100 0 10
  26 42 100 0 10
  26 43 100 0 10
  26 44 100 0 10
  26 45 100 0 10
  26 46 100 0 10
  26 47 100 0 10
  26 48 100 0 10
  26 49 100 0 10
  26 50 100 0 10
  27 1 100 0 10
  27 2 100 0 10
  27 3 100 0 10
  27 4 100 0 10
  27 5 100 0 10
  27 6 100 0 10
  27 7 100 0 10
  27 8 100 0 10
  27 9 100 0 10
  27 10 100 0 10
  27 11 100 0 10
  27 12 100 0 10
  27 13 100 0 10
  27 14 100 0 10
  27 15 100 0 10
  27 16 100 0 10
  27 17 100 0 10
  27 18 100 0 10
  27 19 100 0 10
  27 20 100 0 10
  27 21 100 0 10
  27 22 100 0 10
  27 23 100 0 10
  27 24 100 0 10
  27 25 100 0 10
  27 26 100 0 10
  27 27 100 0 10
  27 28 100 0 10
  27 29 100 0 10
  27 30 100 0 10
  27 31 100 0 10
  27 32 100 0 10
  27 33 100 0 10
  27 34 100 0 10
  27 35 100 0 10
  27 36 100 0 10
  27 37 100 0 10
  27 38 100 0 10
  27 39 100 0 10
  27 40 100 0 10
  27 41 100 0 10
  27 42 100 0 10
  27 43 100 0 10
  27 44 100 0 10
  27 45 100 0 10
  27 46 100 0 10
  27 47 100 0 10
  27 48 100 0 10
  27 49 100 0 10
  27 50 100 0 10
  28 1 100 0 10
  28 2 100 0 10
  28 3 100 0 10
  28 4 100 0 10
  28 5 100 0 10
  28 6 100 0 10
  28 7 100 0 10
  28 8 100 0 10
  28 9 100 0 10
  28 10 100 0 10
  28 11 100 0 10
  28 12 100 0 10
  28 13 100 0 10
  28 14 100 0 10
  28 15 100 0 10
  28 16 100 0 10
  28 17 100 0 10
  28 18 100 0 10
  28 19 100 0 10
  28 20 100 0 10
  28 21 100 0 10
  28 22 100 0 10
  28 23 100 0 10
  28 24 100 0 10
  28 25 100 0 10
  28 26 100 0 10
  28 27 100 0 10
  28 28 100 0 10
  28 29 100 0 10
  28 30 100 0 10
  28 31 100 0 10
  28 32 100 0 10
  28 33 100 0 10
  28 34 100 0 10
  28 35 100 0 10
  28 36 100 0 10
  28 37 100 0 10
  28 38 100 0 10
  28 39 100 0 10
  28 40 100 0 10
  28 41 100 0 10
  28 42 100 0 10
  28 43 100 0 10
  28 44 100 0 10
  28 45 100 0 10
  28 46 100 0 10
  28 47 100 0 10
  28 48 100 0 10
  28 49 100 0 10
  28 50 100 0 10
  29 1 100 0 10
  29 2 100 0 10
  29 3 100 0 10
  29 4 100 0 10
  29 5 100 0 10
  29 6 100 0 10
  29 7 100 0 10
  29 8 100 0 10
  29 9 100 0 10
  29 10 100 0 10
  29 11 100 0 10
  29 12 100 0 10
  29 13 100 0 10
  29 14 100 0 10
  29 15 100 0 10
  29 16 100 0 10
  29 17 100 0 10
  29 18 100 0 10
  29 19 100 0 10
  29 20 100 0 10
  29 21 100 0 10
  29 22 100 0 10
  29 23 100 0 10
  29 24 100 0 10
  29 25 100 0 10
  29 26 100 0 10
  29 27 100 0 10
  29 28 100 0 10
  29 29 100 0 10
  29 30 100 0 10
  29 31 100 0 10
  29 32 100 0 10
  29 33 100 0 10
  29 34 100 0 10
  29 35 100 0 10
  29 36 100 0 10
  29 37 100 0 10
  29 38 100 0 10
  29 39 100 0 10
  29 40 100 0 10
  29 41 100 0 10
  29 42 100 0 10
  29 43 100 0 10
  29 44 100 0 10
  29 45 100 0 10
  29 46 100 0 10
  29 47 100 0 10
  29 48 100 0 10
  29 49 100 0 10
  29 50 100 0 10
  30 1 100 0 10
  30 2 100 0 10
  30 3 100 0 10
  30 4 100 0 10
  30 5 100 0 10
  30 6 100 0 10
  30 7 100 0 10
  30 8 100 0 10
  30 9 100 0 10
  30 10 100 0 10
  30 11 100 0 10
  30 12 100 0 10
  30 13 100 0 10
  30 14 100 0 10
  30 15 100 0 10
  30 16 100 0 10
  30 17 100 0 10
  30 18 100 0 10
  30 19 100 0 10
  30 20 100 0 10
  30 21 100 0 10
  30 22 100 0 10
  30 23 100 0 10
  30 24 100 0 10
  30 25 100 0 10
  30 26 100 0 10
  30 27 100 0 10
  30 28 100 0 10
  30 29 100 0 10
  30 30 100 0 10
  30 31 100 0 10
  30 32 100 0 10
  30 33 100 0 10
  30 34 100 0 10
  30 35 100 0 10
  30 36 100 0 10
  30 37 100 0 10
  30 38 100 0 10
  30 39 100 0 10
  30 40 100 0 10
  30 41 100 0 10
  30 42 100 0 10
  30 43 100 0 10
  30 44 100 0 10
  30 45 100 0 10
  30 46 100 0 10
  30 47 100 0 10
  30 48 100 0 10
  30 49 100 0 10
  30 50 100 0 10
  31 1 100 0 10
  31 2 100 0 10
  31 3 100 0 10
  31 4 100 0 10
  31 5 100 0 10
  31 6 100 0 10
  31 7 100 0 10
  31 8 100 0 10
  31 9 100 0 10
  31 10 100 0 10
  31 11 100 0 10
  31 12 100 0 10
  31 13 100 0 10
  31 14 100 0 10
  31 15 100 0 10
  31 16 100 0 10
  31 17 100 0 10
  31 18 100 0 10
  31 19 100 0 10
  31 20 100 0 10
  31 21 100 0 10
  31 22 100 0 10
  31 23 100 0 10
  31 24 100 0 10
  31 25 100 0 10
  31 26 100 0 10
  31 27 100 0 10
  31 28 100 0 10
  31 29 100 0 10
  31 30 100 0 10
  31 31 100 0 10
  31 32 100 0 10
  31 33 100 0 10
  31 34 100 0 10
  31 35 100 0 10
  31 36 100 0 10
  31 37 100 0 10
  31 38 100 0 10
  31 39 100 0 10
  31 40 100 0 10
  31 41 100 0 10
  31 42 100 0 10
  31 43 100 0 10
  31 44 100 0 10
  31 45 100 0 10
  31 46 100 0 10
  31 47 100 0 10
  31 48 100 0 10
  31 49 100 0 10
  31 50 100 0 10
  32 1 100 0 10
  32 2 100 0 10
  32 3 100 0 10
  32 4 100 0 10
  32 5 100 0 10
  32 6 100 0 10
  32 7 100 0 10
  32 8 100 0 10
  32 9 100 0 10
  32 10 100 0 10
  32 11 100 0 10
  32 12 100 0 10
  32 13 100 0 10
  32 14 100 0 10
  32 15 100 0 10
  32 16 100 0 10
  32 17 100 0 10
  32 18 100 0 10
  32 19 100 0 10
  32 20 100 0 10
  32 21 100 0 10
  32 22 100 0 10
  32 23 100 0 10
  32 24 100 0 10
  32 25 100 0 10
  32 26 100 0 10
  32 27 100 0 10
  32 28 100 0 10
  32 29 100 0 10
  32 30 100 0 10
  32 31 100 0 10
  32 32 100 0 10
  32 33 100 0 10
  32 34 100 0 10
  32 35 100 0 10
  32 36 100 0 10
  32 37 100 0 10
  32 38 100 0 10
  32 39 100 0 10
  32 40 100 0 10
  32 41 100 0 10
  32 42 100 0 10
  32 43 100 0 10
  32 44 100 0 10
  32 45 100 0 10
  32 46 100 0 10
  32 47 100 0 10
  32 48 100 0 10
  32 49 100 0 10
  32 50 100 0 10
  33 1 100 0 10
  33 2 100 0 10
  33 3 100 0 10
  33 4 100 0 10
  33 5 100 0 10
  33 6 100 0 10
  33 7 100 0 10
  33 8 100 0 10
  33 9 100 0 10
  33 10 100 0 10
  33 11 100 0 10
  33 12 100 0 10
  33 13 100 0 10
  33 14 100 0 10
  33 15 100 0 10
  33 16 100 0 10
  33 17 100 0 10
  33 18 100 0 10
  33 19 100 0 10
  33 20 100 0 10
  33 21 100 0 10
  33 22 100 0 10
  33 23 100 0 10
  33 24 100 0 10
  33 25 100 0 10
  33 26 100 0 10
  33 27 100 0 10
  33 28 100 0 10
  33 29 100 0 10
  33 30 100 0 10
  33 31 100 0 10
  33 32 100 0 10
  33 33 100 0 10
  33 34 100 0 10
  33 35 100 0 10
  33 36 100 0 10
  33 37 100 0 10
  33 38 100 0 10
  33 39 100 0 10
  33 40 100 0 10
  33 41 100 0 10
  33 42 100 0 10
  33 43 100 0 10
  33 44 100 0 10
  33 45 100 0 10
  33 46 100 0 10
  33 47 100 0 10
  33 48 100 0 10
  33 49 100 0 10
  33 50 100 0 10
  34 1 100 0 10
  34 2 100 0 10
  34 3 100 0 10
  34 4 100 0 10
  34 5 100 0 10
  34 6 100 0 10
  34 7 100 0 10
  34 8 100 0 10
  34 9 100 0 10
  34 10 100 0 10
  34 11 100 0 10
  34 12 100 0 10
  34 13 100 0 10
  34 14 100 0 10
  34 15 100 0 10
  34 16 100 0 10
  34 17 100 0 10
  34 18 100 0 10
  34 19 100 0 10
  34 20 100 0 10
  34 21 100 0 10
  34 22 100 0 10
  34 23 100 0 10
  34 24 100 0 10
  34 25 100 0 10
  34 26 100 0 10
  34 27 100 0 10
  34 28 100 0 10
  34 29 100 0 10
  34 30 100 0 10
  34 31 100 0 10
  34 32 100 0 10
  34 33 100 0 10
  34 34 100 0 10
  34 35 100 0 10
  34 36 100 0 10
  34 37 100 0 10
  34 38 100 0 10
  34 39 100 0 10
  34 40 100 0 10
  34 41 100 0 10
  34 42 100 0 10
  34 43 100 0 10
  34 44 100 0 10
  34 45 100 0 10
  34 46 100 0 10
  34 47 100 0 10
  34 48 100 0 10
  34 49 100 0 10
  34 50 100 0 10
  35 1 100 0 10
  35 2 100 0 10
  35 3 100 0 10
  35 4 100 0 10
  35 5 100 0 10
  35 6 100 0 10
  35 7 100 0 10
  35 8 100 0 10
  35 9 100 0 10
  35 10 100 0 10
  35 11 100 0 10
  35 12 100 0 10
  35 13 100 0 10
  35 14 100 0 10
  35 15 100 0 10
  35 16 100 0 10
  35 17 100 0 10
  35 18 100 0 10
  35 19 100 0 10
  35 20 100 0 10
  35 21 100 0 10
  35 22 100 0 10
  35 23 100 0 10
  35 24 100 0 10
  35 25 100 0 10
  35 26 100 0 10
  35 27 100 0 10
  35 28 100 0 10
  35 29 100 0 10
  35 30 100 0 10
  35 31 100 0 10
  35 32 100 0 10
  35 33 100 0 10
  35 34 100 0 10
  35 35 100 0 10
  35 36 100 0 10
  35 37 100 0 10
  35 38 100 0 10
  35 39 100 0 10
  35 40 100 0 10
  35 41 100 0 10
  35 42 100 0 10
  35 43 100 0 10
  35 44 100 0 10
  35 45 100 0 10
  35 46 100 0 10
  35 47 100 0 10
  35 48 100 0 10
  35 49 100 0 10
  35 50 100 0 10
  36 1 100 0 10
  36 2 100 0 10
  36 3 100 0 10
  36 4 100 0 10
  36 5 100 0 10
  36 6 100 0 10
  36 7 100 0 10
  36 8 100 0 10
  36 9 100 0 10
  36 10 100 0 10
  36 11 100 0 10
  36 12 100 0 10
  36 13 100 0 10
  36 14 100 0 10
  36 15 100 0 10
  36 16 100 0 10
  36 17 100 0 10
  36 18 100 0 10
  36 19 100 0 10
  36 20 100 0 10
  36 21 100 0 10
  36 22 100 0 10
  36 23 100 0 10
  36 24 100 0 10
  36 25 100 0 10
  36 26 100 0 10
  36 27 100 0 10
  36 28 100 0 10
  36 29 100 0 10
  36 30 100 0 10
  36 31 100 0 10
  36 32 100 0 10
  36 33 100 0 10
  36 34 100 0 10
  36 35 100 0 10
  36 36 100 0 10
  36 37 100 0 10
  36 38 100 0 10
  36 39 100 0 10
  36 40 100 0 10
  36 41 100 0 10
  36 42 100 0 10
  36 43 100 0 10
  36 44 100 0 10
  36 45 100 0 10
  36 46 100 0 10
  36 47 100 0 10
  36 48 100 0 10