# File generated by Flopy version 3.9.1 on 06/24/2025 at 08:47:04.
BEGIN options
  SAVE_FLOWS
  SAVE_SPECIFIC_DISCHARGE
  SAVE_SATURATION
END options

BEGIN griddata
  icelltype
    CONSTANT  0
  k  LAYERED
    INTERNAL  FACTOR  1.0
      3.65611224E-04  3.99985816E-04  5.17426699E-04  6.41652441E-04  7.23957899E-04  6.74904732E-04  5.82044537E-04  4.66819940E-04  3.85634543E-04  3.23678047E-04  3.29225149E-04  3.43648135E-04  4.13722126E-04  5.87103830E-04  8.07839853E-04  7.90535822E-04  6.73659495E-04  4.52328706E-04  2.74726743E-04  2.47519958E-04  2.58464948E-04  2.86071154E-04  3.50254530E-04  4.33417212E-04  6.14814344E-04  8.47923453E-04       0.00103343       0.00111886       0.00123895       0.00124339       0.00113590  9.49375390E-04  5.81413857E-04  3.58446647E-04  2.15557477E-04  1.37681243E-04  9.24210108E-05  6.69491565E-05  4.93531115E-05  4.82672840E-05  5.52140627E-05  7.60340554E-05  8.81778906E-05  9.32136609E-05  1.00498452E-04  1.01679885E-04  9.67112428E-05  9.24465858E-05  9.48128509E-05  1.05143321E-04  1.16155781E-04  1.33974900E-04  1.78957009E-04  2.90824595E-04  5.51145757E-04       0.00110136       0.00187845       0.00223762       0.00237569       0.00216679       0.00148911  8.90301366E-04  6.19305822E-04  4.32646018E-04  3.79813835E-04  3.50212416E-04  3.49209120E-04  2.74959573E-04  2.05606644E-04  1.56146751E-04  1.04970182E-04  8.15747553E-05  6.54103060E-05  7.11746688E-05  1.05803003E-04  1.42505291E-04  1.81155250E-04  2.29902231E-04  3.01318534E-04  3.29941831E-04  2.73834594E-04  2.13812134E-04  2.08124577E-04  1.86100995E-04  1.76162226E-04  1.62323267E-04  1.72898624E-04  1.99230679E-04  2.78742868E-04  3.30805138E-04  4.32518980E-04  5.16534084E-04  4.90022299E-04  4.90601524E-04  5.46688912E-04  5.76085353E-04  4.84257907E-04  4.93070227E-04  5.80046151E-04  5.45079354E-04
      3.16662074E-04  3.87952867E-04  5.12269966E-04  7.23963487E-04  8.15213018E-04  8.07085831E-04  7.87629571E-04  7.25941034E-04  4.85949771E-04  3.99629353E-04  3.34350974E-04  3.19110113E-04  3.57302430E-04  4.47036960E-04  5.01867617E-04  5.64908900E-04  5.73953323E-04  4.17843956E-04  2.63142399E-04  2.17197550E-04  1.90213497E-04  1.84361634E-04  2.56028317E-04  3.52173171E-04  4.51198284E-04  6.16733741E-04  9.21937346E-04       0.00103532       0.00103196       0.00107167  8.77339975E-04  6.87932596E-04  4.01932542E-04  2.34579362E-04  1.53501343E-04  1.08862689E-04  7.00012242E-05  4.89742852E-05  3.71885144E-05  3.84823288E-05  4.47732491E-05  6.88881919E-05  9.39789461E-05  1.06337728E-04  1.15875861E-04  1.12876551E-04  1.08472421E-04  8.70112053E-05  9.25156346E-05  1.03306353E-04  1.22717713E-04  1.62613680E-04  1.73340741E-04  2.39838846E-04  5.21518989E-04  9.68842127E-04       0.00166697       0.00213805       0.00259248       0.00230816       0.00138767  8.21520691E-04  5.46820113E-04  3.56308534E-04  3.31136369E-04  3.22239444E-04  2.96835322E-04  2.08564583E-04  1.61021424E-04  1.14684692E-04  8.01839706E-05  5.51413032E-05  4.67368191E-05  5.09297606E-05  7.54535722E-05  1.04907558E-04  1.41351600E-04  1.77528287E-04  2.32834354E-04  3.06505506E-04  3.03156616E-04  2.87632836E-04  2.95591657E-04  2.68568285E-04  2.50327896E-04  2.36392327E-04  2.73578567E-04  2.96068465E-04  3.83353210E-04  4.18243057E-04  4.44454839E-04  3.94436473E-04  4.05384810E-04  4.16356052E-04  4.74248111E-04  4.31836612E-04  3.93242139E-04  4.55011526E-04  5.13746811E-04  5.28857112E-04
      2.87978211E-04  4.27849154E-04  5.17581822E-04  7.25252321E-04  8.62038403E-04  8.80308042E-04  8.10123456E-04  6.54521515E-04  5.17089909E-04  3.89894325E-04  3.07730545E-04  3.18539533E-04  3.13050754E-04  3.44350061E-04  3.98493896E-04  4.71956038E-04  4.37597075E-04  3.32214666E-04  2.49946985E-04  1.87527869E-04  1.58316019E-04  1.59273201E-04  2.22635543E-04  2.86655326E-04  3.47544090E-04  4.99764108E-04  7.53776054E-04  9.48803325E-04  9.43785009E-04  8.08011915E-04  6.70109701E-04  4.46842634E-04  2.76573992E-04  1.56406095E-04  1.11404173E-04  7.39328316E-05  5.35068393E-05  3.72233189E-05  3.17190279E-05  3.62342471E-05  4.33894784E-05  6.43290768E-05  9.17580328E-05  1.19325981E-04  1.17952201E-04  1.24987855E-04  1.10300811E-04  6.67135391E-05  7.14751513E-05  1.03441358E-04  1.29926440E-04  1.56334077E-04  1.79738272E-04  2.38094319E-04  3.93855269E-04  7.75404449E-04       0.00137103       0.00210280       0.00242117       0.00209839       0.00140226  7.21820863E-04  4.73532418E-04  3.30842740E-04  3.04475572E-04  2.71210767E-04  2.39285699E-04  1.76972768E-04  1.29344786E-04  9.02004685E-05  6.36454279E-05  4.60932315E-05  4.13551825E-05  3.95160605E-05  5.01527757E-05  7.07036743E-05  9.60949037E-05  1.25770312E-04  1.80316943E-04  2.61044421E-04  3.02205648E-04  3.07006674E-04  3.46140005E-04  4.04454535E-04  3.79567646E-04  4.18371172E-04  4.59415547E-04  4.76387533E-04  4.65089717E-04  4.70778905E-04  4.15950082E-04  3.94911185E-04  3.60032253E-04  3.41765437E-04  3.50692251E-04  3.60591046E-04  4.33387002E-04  4.60946758E-04  4.49247687E-04  4.92800667E-04
      2.41796908E-04  3.20838240E-04  5.06445649E-04  6.65277475E-04  9.49774694E-04       0.00108929  9.55753669E-04  7.64104887E-04  5.44159964E-04  3.88964545E-04  3.10542295E-04  2.89563497E-04  2.96725833E-04  3.10659583E-04  3.33079370E-04  3.98105563E-04  3.84912448E-04  2.92831683E-04  2.12747356E-04  2.05411241E-04  2.09781909E-04  1.84432691E-04  2.06450975E-04  2.45455594E-04  2.93249963E-04  4.37248411E-04  6.54795731E-04  8.65458162E-04  9.13173251E-04  7.16827053E-04  5.38268534E-04  3.44928092E-04  1.96875029E-04  1.36275048E-04  1.03554426E-04  6.99667289E-05  4.90541461E-05  3.25531328E-05  2.92422028E-05  3.47058667E-05  4.42574674E-05  6.80436351E-05  9.12015894E-05  1.13208123E-04  1.09685556E-04  9.64922219E-05  8.91187956E-05  6.67333225E-05  7.36238799E-05  1.07870270E-04  1.17752155E-04  1.50485619E-04  1.82734104E-04  2.83342670E-04  4.30653366E-04  7.22020981E-04       0.00132717       0.00181813       0.00202081       0.00169970       0.00113187  6.03825494E-04  3.85478954E-04  2.82910885E-04  2.69683456E-04  2.55269057E-04  2.21146256E-04  1.60268188E-04  1.23332167E-04  8.63744208E-05  6.03747285E-05  4.55656955E-05  3.87082764E-05  3.47368223E-05  3.54775366E-05  5.13411323E-05  6.67434288E-05  9.07350550E-05  1.29839944E-04  1.88666323E-04  2.67132855E-04  3.01847351E-04  3.69831891E-04  4.65726422E-04  4.91097628E-04  6.63210230E-04  6.99721393E-04  6.60137215E-04  6.43712527E-04  5.75226091E-04  4.54790774E-04  3.69062007E-04  3.61424231E-04  2.99672189E-04  3.13288532E-04  3.12200718E-04  3.93174792E-04  4.01020283E-04  4.14534676E-04  5.28044533E-04
      1.94187756E-04  2.52708356E-04  4.13056056E-04  6.19783706E-04  9.31396964E-04       0.00108837       0.00116490  9.33733012E-04  5.63378329E-04  5.12749655E-04  4.03299578E-04  3.20360763E-04  2.84203561E-04  2.88863492E-04  2.99163774E-04  3.58463963E-04  3.28440423E-04  2.90230499E-04  2.41726695E-04  2.60458823E-04  2.73675454E-04  2.49572942E-04  2.38007153E-04  2.40432084E-04  3.00717016E-04  4.02576261E-04  5.83116314E-04  7.04883540E-04  7.89769809E-04  6.72478171E-04  4.86462261E-04  2.81179673E-04  1.72670305E-04  1.09311477E-04  9.10746094E-05  6.73567411E-05  5.06067408E-05  3.82328399E-05  2.97763672E-05  3.52891184E-05  5.30204525E-05  8.33962258E-05  1.07806569E-04  1.18884884E-04  1.10789828E-04  8.44189126E-05  7.75658191E-05  6.82626633E-05  7.23982957E-05  9.99959375E-05  1.27174120E-04  1.71400985E-04  2.14224288E-04  3.27612244E-04  4.54463821E-04  7.09144457E-04       0.00118499       0.00150884       0.00134518       0.00129277       0.00100157  6.53363764E-04  4.02553938E-04  2.93892343E-04  2.57589272E-04  2.06257158E-04  1.48116844E-04  1.33242822E-04  1.28715415E-04  9.04988556E-05  6.90998422E-05  5.41656118E-05  4.54621513E-05  3.88524495E-05  3.31817864E-05  3.90570203E-05  5.05771895E-05  6.19551647E-05  8.88831928E-05  1.37665149E-04  2.07223347E-04  2.65920622E-04  4.05319181E-04  5.43478411E-04  6.75683259E-04  8.48586089E-04  9.52812028E-04  9.03041684E-04  8.42463633E-04  7.65081611E-04  5.30473830E-04  3.82680562E-04  3.67364206E-04  3.09868599E-04  2.94305675E-04  2.83162604E-04  3.36477533E-04  4.38570860E-04  4.62701952E-04  5.25750744E-04
      1.65539954E-04  2.29655736E-04  3.64931824E-04  5.91028715E-04  7.82374991E-04  9.80154728E-04       0.00103016  8.56998493E-04  6.58850477E-04  5.37986401E-04  4.52392036E-04  4.06037172E-04  3.26184643E-04  2.90115946E-04  2.75128987E-04  3.08430404E-04  3.45937704E-04  3.44354601E-04  3.08884861E-04  3.26807494E-04  3.46285407E-04  3.24661640E-04  2.87276518E-04  2.67014373E-04  3.01660475E-04  4.15564107E-04  5.35365136E-04  6.41006394E-04  6.43862411E-04  5.68197342E-04  4.63825796E-04  2.65145383E-04  1.58794850E-04  1.00023935E-04  8.29032360E-05  8.25149255E-05  6.81693346E-05  5.43458118E-05  4.62479984E-05  5.52420170E-05  8.71365410E-05  1.30121873E-04  1.33253867E-04  1.20550467E-04  1.14568778E-04  8.04239680E-05  7.86000674E-05  7.32701083E-05  7.43195051E-05  1.00987185E-04  1.49364947E-04  1.89294602E-04  2.52119149E-04  3.69205867E-04  5.29956014E-04  6.74815092E-04  9.16398829E-04       0.00112971  9.94475558E-04  9.92299058E-04  8.97045713E-04  6.25045388E-04  4.42434248E-04  3.58556455E-04  2.40553010E-04  1.73185705E-04  1.29020904E-04  1.10957211E-04  1.17295494E-04  9.96243252E-05  7.75642839E-05  7.28524101E-05  5.74771548E-05  4.55385380E-05  3.16342012E-05  3.20613217E-05  3.32893651E-05  4.16856456E-05  6.43658132E-05  9.97808675E-05  1.52579771E-04  2.26204385E-04  3.47183086E-04  4.80982621E-04  7.29559513E-04       0.00103019       0.00110421       0.00114514       0.00102386  8.14741419E-04  6.68180350E-04  4.80354327E-04  4.10657143E-04  3.41716077E-04  3.30901035E-04  3.40663421E-04  3.75975505E-04  4.26397950E-04  4.58552793E-04  5.21444832E-04
      1.69914085E-04  2.53515260E-04  4.15840012E-04  5.83694375E-04  6.74842100E-04  8.05360149E-04  8.73239769E-04  7.42181845E-04  6.57644938E-04  5.29496232E-04  4.26771003E-04  4.02512815E-04  3.65214830E-04  3.20214633E-04  2.56627914E-04  2.78206746E-04  3.50066344E-04  4.34026995E-04  4.31230379E-04  4.12016554E-04  4.02460224E-04  3.63836414E-04  3.45262262E-04  3.25139292E-04  3.42730986E-04  4.05545987E-04  4.73616121E-04  5.24890202E-04  4.21136647E-04  4.26085782E-04  4.04622639E-04  2.67090625E-04  1.74329325E-04  1.21591307E-04  8.84080291E-05  9.11821699E-05  7.51855550E-05  6.58853751E-05  6.86501953E-05  8.41917645E-05  1.32925881E-04  1.69725390E-04  1.56234717E-04  1.28378597E-04  1.35764145E-04  1.15750292E-04  9.90302942E-05  8.46188050E-05  9.56473232E-05  1.26886458E-04  1.76416172E-04  2.42742419E-04  3.53241805E-04  5.04932425E-04  6.19124621E-04  8.59482912E-04       0.00104599       0.00106616  9.99911106E-04  9.79424804E-04  8.87139875E-04  6.45668653E-04  4.74899425E-04  3.65618442E-04  2.84759066E-04  1.80788542E-04  1.25723091E-04  1.05793421E-04  1.13044975E-04  1.05433021E-04  9.26112698E-05  8.59636275E-05  7.04779814E-05  5.20097165E-05  4.10394132E-05  3.48728245E-05  3.25598885E-05  3.61646526E-05  5.07666846E-05  7.27326842E-05  1.21319201E-04  2.05306744E-04  3.16454389E-04  3.75355972E-04  5.67183539E-04  8.50209326E-04       0.00106061       0.00119379       0.00115389       0.00106030  8.89951945E-04  6.93508540E-04  5.69102995E-04  4.50593332E-04  4.35627298E-04  4.51073953E-04  4.25238948E-04  4.28853964E-04  4.85729455E-04  5.43318805E-04
      1.58404000E-04  2.53996288E-04  3.97667609E-04  5.43556293E-04  6.90616551E-04  9.19018115E-04  9.18017176E-04  8.04823590E-04  6.99373835E-04  5.39687637E-04  4.61001415E-04  4.15730930E-04  3.67378932E-04  3.10403702E-04  2.74192455E-04  3.39265738E-04  4.13931586E-04  4.83221404E-04  4.90009901E-04  4.97517758E-04  4.59814968E-04  4.30120097E-04  3.56657489E-04  3.31823336E-04  3.25143046E-04  3.57727171E-04  3.63864790E-04  3.74568015E-04  3.48376750E-04  3.27427755E-04  2.99082662E-04  2.82158784E-04  2.35605388E-04  1.77627531E-04  1.20621626E-04  9.98393880E-05  9.88317333E-05  9.92028945E-05  1.19045355E-04  1.30109955E-04  1.79469891E-04  2.29001584E-04  2.13094041E-04  1.79636772E-04  1.85655983E-04  1.65357749E-04  1.25960258E-04  1.10880850E-04  1.31550783E-04  1.77870214E-04  2.60989822E-04  3.54218384E-04  4.81299066E-04  6.07381167E-04  7.41023978E-04  9.10687086E-04  9.74875293E-04       0.00104821  8.38150852E-04  8.12630344E-04  7.58010370E-04  5.90777025E-04  4.69710911E-04  3.65782878E-04  2.92658282E-04  1.80826362E-04  1.13065893E-04  9.84563449E-05  1.12852693E-04  1.14606213E-04  1.16031122E-04  1.16583426E-04  9.30584283E-05  6.01432257E-05  4.37576200E-05  4.15030627E-05  3.82611870E-05  3.64484767E-05  4.59678449E-05  6.96085117E-05  1.09496883E-04  1.93244472E-04  2.81736080E-04  3.55728844E-04  5.28478704E-04  7.34436326E-04  8.92931828E-04       0.00108347       0.00127506       0.00137406       0.00125038       0.00130462  9.40718572E-04  7.15989328E-04  6.72635855E-04  6.84567960E-04  5.53042220E-04  5.25202078E-04  6.41926890E-04  6.68182911E-04
      1.71343418E-04  2.30110702E-04  3.40052415E-04  4.89440456E-04  6.35043543E-04  8.18440283E-04  9.25311761E-04  7.95310596E-04  7.78058369E-04  6.20426086E-04  5.24910924E-04  5.10474085E-04  4.56563139E-04  3.56628298E-04  3.20409483E-04  3.76994227E-04  4.98623762E-04  5.96123515E-04  5.98149432E-04  5.22157585E-04  5.02128853E-04  4.08083259E-04  3.66164400E-04  3.00489279E-04  3.14022240E-04  2.93574994E-04  2.52444501E-04  2.56241910E-04  2.73386831E-04  2.65207840E-04  2.39436282E-04  3.00843996E-04  2.40786481E-04  2.07951671E-04  1.58080758E-04  1.27069157E-04  1.17725205E-04  1.35773167E-04  1.70432482E-04  2.24510586E-04  2.71110883E-04  2.84666836E-04  3.01503693E-04  2.38586028E-04  2.27121956E-04  2.25083946E-04  1.84921359E-04  1.66564219E-04  1.65815276E-04  2.26501987E-04  3.67592584E-04  5.37192507E-04  6.84811501E-04  8.88494775E-04  9.19048383E-04  8.97846825E-04  8.87042959E-04       0.00102437  7.47335900E-04  6.48789399E-04  6.16185134E-04  4.66871978E-04  3.68920824E-04  3.55094729E-04  3.11557116E-04  2.28558230E-04  1.52198627E-04  1.31829263E-04  1.33465364E-04  1.47517567E-04  1.55205285E-04  1.50154869E-04  1.11672860E-04  7.38692179E-05  5.39165812E-05  4.98477602E-05  4.63126344E-05  4.15764916E-05  4.53628309E-05  6.42941959E-05  9.42579572E-05  1.58051422E-04  2.72586098E-04  3.92710790E-04  4.76876856E-04  6.21774932E-04  7.94017571E-04       0.00105091       0.00146574       0.00184074       0.00180395       0.00165243       0.00141451       0.00112195  9.88566899E-04  9.88812768E-04  7.76159519E-04  7.91510276E-04  8.83227505E-04  7.30266736E-04
      1.77381677E-04  2.21740236E-04  2.88201059E-04  5.21522714E-04  7.34625442E-04  9.28306545E-04  9.23884450E-04  8.90260329E-04  9.34330397E-04  8.07687291E-04  6.66304550E-04  6.11584983E-04  5.79729385E-04  4.85064083E-04  5.48032694E-04  5.94105164E-04  6.21463056E-04  6.48502377E-04  7.34841276E-04  6.26489229E-04  4.56488691E-04  3.97195225E-04  3.02811299E-04  2.55116756E-04  2.32080289E-04  2.17960813E-04  1.86101708E-04  1.65067788E-04  2.14963424E-04  2.24859657E-04  2.47926306E-04  2.80213775E-04  2.64578615E-04  2.30360078E-04  1.74757544E-04  1.37096780E-04  1.30741464E-04  1.54087626E-04  2.18892892E-04  3.13743774E-04  3.69340909E-04  3.58319754E-04  3.13683151E-04  2.76348146E-04  2.47032760E-04  2.41708258E-04  2.43540882E-04  2.21517825E-04  2.54738901E-04  3.07813170E-04  4.59690287E-04  7.58743146E-04  9.58768534E-04       0.00112325       0.00120263       0.00117894       0.00108115       0.00109981  7.27749837E-04  5.56466868E-04  4.36663569E-04  3.48622212E-04  3.10110743E-04  3.22561566E-04  3.34174634E-04  2.65720388E-04  2.00511611E-04  1.83361961E-04  1.70344647E-04  1.91842017E-04  2.07767604E-04  1.96454406E-04  1.49962434E-04  1.04679631E-04  7.81056660E-05  6.81289312E-05  5.80577544E-05  5.18771158E-05  5.10198697E-05  5.88561816E-05  9.96258605E-05  1.71584106E-04  2.82691995E-04  4.19676391E-04  5.22250426E-04  6.57270313E-04  9.44263826E-04       0.00129712       0.00173014       0.00198346       0.00201121       0.00186312       0.00167882       0.00161835       0.00143862       0.00127980       0.00117084       0.00107346       0.00112549       0.00101094
      1.64357509E-04  1.89077648E-04  2.51113408E-04  4.52039007E-04  5.96362457E-04  8.53068253E-04       0.00100293       0.00117032       0.00120620       0.00111842  9.48361703E-04  8.67575989E-04  8.21070687E-04  5.94160927E-04  8.09693942E-04  9.36341181E-04  9.67467146E-04  9.03173524E-04  7.97736633E-04  6.12517062E-04  4.51559084E-04  3.15905723E-04  2.69523327E-04  2.18623405E-04  1.68942934E-04  1.73876091E-04  1.74629997E-04  1.63159872E-04  1.75983689E-04  1.86806035E-04  2.08987505E-04  2.39119719E-04  2.38662411E-04  1.93594664E-04  1.67039369E-04  1.26876213E-04  1.32977701E-04  1.66352940E-04  2.63397349E-04  3.69210553E-04  3.92943912E-04  3.95754148E-04  3.56497156E-04  3.08016199E-04  2.35774511E-04  2.39991758E-04  2.82687164E-04  2.68505624E-04  3.30531941E-04  4.05110506E-04  5.93795034E-04  8.43109097E-04       0.00110577       0.00116616       0.00131030       0.00131838       0.00114496       0.00107832  6.93989918E-04  4.26405430E-04  3.18622595E-04  2.51474034E-04  2.60720903E-04  3.22015927E-04  3.40363389E-04  2.79412692E-04  2.56951462E-04  2.60241708E-04  2.47012824E-04  2.45031639E-04  2.83951522E-04  3.18429200E-04  2.40204099E-04  1.47569401E-04  1.04153121E-04  9.71689224E-05  7.91505954E-05  6.88004366E-05  6.58803110E-05  8.38184933E-05  1.49950662E-04  2.18760149E-04  3.41653067E-04  4.44377249E-04  5.44349430E-04  7.51796062E-04       0.00104072       0.00143926       0.00202901       0.00224712       0.00224144       0.00222555       0.00220279       0.00220927       0.00209305       0.00209333       0.00180756       0.00154172       0.00163685       0.00152807
      1.43302983E-04  1.64674973E-04  2.37853674E-04  3.65052663E-04  5.78397710E-04  8.09389108E-04       0.00104104       0.00137001       0.00145963       0.00153906       0.00140259       0.00120541       0.00106362       0.00108530       0.00109246       0.00120322       0.00108784  9.35012824E-04  9.06085712E-04  6.14220568E-04  4.23540274E-04  2.89173186E-04  2.36834239E-04  1.71057880E-04  1.34669972E-04  1.30758257E-04  1.21413548E-04  1.16313073E-04  1.10546687E-04  1.18753189E-04  1.59056595E-04  1.81531563E-04  1.85013356E-04  1.58537718E-04  1.34144255E-04  1.27297259E-04  1.44705176E-04  1.93834363E-04  3.05193156E-04  3.91783746E-04  4.10638197E-04  3.76177224E-04  3.88757268E-04  3.56308534E-04  3.38207610E-04  2.87896197E-04  2.76888139E-04  3.14022065E-04  4.05489438E-04  5.02862968E-04  7.28859333E-04       0.00102832       0.00109690       0.00113347       0.00125635       0.00111813  9.99435317E-04  9.62538237E-04  5.96325146E-04  3.24852037E-04  2.22950126E-04  2.19275244E-04  2.34130101E-04  2.68837350E-04  3.08658229E-04  3.28386144E-04  3.25249974E-04  3.30258597E-04  3.38965998E-04  3.39033926E-04  3.71138478E-04  4.81917465E-04  3.58815014E-04  2.39713801E-04  1.80828647E-04  1.51168060E-04  1.15885850E-04  9.51703769E-05  9.77177697E-05  1.25660998E-04  1.89490078E-04  2.49266479E-04  3.74017109E-04  5.23833733E-04  6.35593955E-04  8.44260503E-04       0.00123651       0.00151075       0.00169428       0.00206091       0.00247861       0.00243970       0.00250165       0.00251838       0.00241763       0.00278787       0.00260086       0.00255993       0.00258028       0.00208967
      1.70224055E-04  2.10957005E-04  2.56797182E-04  3.35225806E-04  4.87161917E-04  7.56583991E-04       0.00118238       0.00148904       0.00163757       0.00153576       0.00154330       0.00154659       0.00152894       0.00151873       0.00144191       0.00146359       0.00129166       0.00100644  9.40827013E-04  6.65223808E-04  4.50364576E-04  2.57655454E-04  1.86965888E-04  1.23471866E-04  1.01237863E-04  8.04433075E-05  8.00765483E-05  7.52325359E-05  6.61161757E-05  7.07614599E-05  9.10492163E-05  1.35796945E-04  1.49262647E-04  1.40133838E-04  1.35165115E-04  1.38251111E-04  1.47679864E-04  2.09588878E-04  3.24649882E-04  4.08075633E-04  4.78667731E-04  4.03032871E-04  3.47206340E-04  3.83753068E-04  3.88107088E-04  3.37826670E-04  3.42218264E-04  3.25532747E-04  3.94232775E-04  4.35380090E-04  5.86567738E-04  8.46648938E-04  9.12509742E-04  8.76785314E-04  8.94194003E-04  8.13741935E-04  7.84243457E-04  6.72553899E-04  3.96819494E-04  2.55142804E-04  2.11988503E-04  2.22941191E-04  2.41931542E-04  2.53147271E-04  3.16903810E-04  4.05932195E-04  4.83980693E-04  4.51055384E-04  4.79331182E-04  4.79425420E-04  5.41397778E-04  5.92007127E-04  5.25946729E-04  3.85472405E-04  3.21828935E-04  5.65807090E-09  2.08845187E-04  1.60608251E-04  1.35535753E-04  1.85339886E-04  2.56327592E-04  2.59679131E-04  3.16529273E-04  4.65107849E-04  5.47658885E-04  7.26823113E-04  9.82539146E-04       0.00122564       0.00143180       0.00173067       0.00214816       0.00225985       0.00235261       0.00250173       0.00264712       0.00285985       0.00348562       0.00337541       0.00374452       0.00283597
      1.86884106E-04  2.22284434E-04  2.75913830E-04  3.13240540E-04  4.38446878E-04  8.01550108E-04       0.00128135       0.00166394       0.00160667       0.00156408       0.00152533       0.00165528       0.00192177       0.00189659       0.00173325       0.00156633       0.00132492       0.00101298  9.54002782E-04  7.13521615E-04  4.69509308E-04  2.67214549E-04  1.60250682E-04  9.81239500E-05  7.98673063E-05  6.44944230E-05  5.66577328E-05  5.16513683E-05  5.08107369E-05  6.35309261E-05  7.59853137E-05  1.01935024E-04  1.37937779E-04  1.38620089E-04  1.64281199E-04  1.71306543E-04  1.81997151E-04  2.37326734E-04  3.30565148E-04  3.45286535E-04  3.79274366E-04  3.62095685E-04  3.50114569E-04  3.90331232E-04  3.79153411E-04  3.56745411E-04  3.40235798E-04  3.32460797E-04  3.30321898E-04  3.28118738E-04  3.95952549E-04  4.93547937E-04  6.30685070E-04  6.22188440E-04  5.99834369E-04  5.01348288E-04  3.90909991E-04  3.10063770E-04  2.16656175E-04  1.62691373E-04  1.64255398E-04  2.05739765E-04  2.30980950E-04  2.72474485E-04  3.90359928E-04  5.16482512E-04  5.80554595E-04  5.75493963E-04  5.91908989E-04  5.60624117E-04  5.60988963E-04  6.95788593E-04  7.29979365E-04  6.29798975E-04       0.00135875  5.51161206E-09  3.21742904E-04  2.35511383E-04  2.02506708E-04  2.72589095E-04  3.16488615E-04  3.43901396E-04  4.29869659E-04  4.53006651E-04  5.49496210E-04  7.06060848E-04  8.19069974E-04  8.69194919E-04       0.00115403       0.00140146       0.00169880       0.00204870       0.00218980       0.00228816       0.00285065       0.00389123       0.00457528       0.00483681       0.00426914       0.00320252
      1.89132770E-04  2.20653776E-04  2.71555531E-04  3.21280124E-04  3.98045464E-04  6.86785090E-04       0.00102556       0.00124204       0.00156416       0.00177165       0.00173629       0.00191812       0.00176102       0.00181589       0.00182009       0.00150506       0.00131718       0.00124793       0.00115549  8.20490764E-04  4.96762281E-04  3.07699316E-04  1.65817270E-04  9.53225390E-05  6.34054231E-05  5.37859705E-05  4.95047461E-05  4.63752731E-05  4.22294215E-05  5.73872967E-05  7.63620119E-05  1.19391705E-04  1.39000651E-04  1.80162780E-04  1.99146263E-04  2.26378674E-04  2.20030939E-04  2.66309653E-04  2.93347373E-04  3.39488179E-04  3.44550703E-04  3.39471415E-04  4.03698738E-04  4.10016044E-04  3.45820357E-04  3.06570641E-04  2.60139146E-04  2.23614974E-04  2.28324963E-04  2.52105994E-04  2.66313757E-04  2.71962956E-04  3.36446130E-04  3.69104964E-04  3.40278581E-04  2.64321367E-04  1.97596484E-04  1.58003197E-04  1.42986930E-04  1.19539334E-04  1.24459257E-04  1.58534502E-04  2.15810986E-04  2.70984106E-04  4.00314893E-04  5.37209038E-04  5.93750388E-04  6.49648369E-04  6.96726260E-04  7.19516305E-04  8.32675840E-04  8.02161056E-04  9.85755934E-04  5.34457145E-09  6.02643890E-09  6.49537091E-09  5.43415757E-09  4.00973833E-04  4.08926920E-04  4.39733849E-04  4.80493065E-04  4.58078022E-04  5.20958449E-04  6.36636338E-04  6.33970718E-04  6.96023169E-04  6.63058076E-04  7.71656458E-04  8.10956000E-04  8.83557252E-04       0.00116593       0.00160857       0.00185539       0.00217150       0.00292891       0.00446195       0.00458578       0.00381115       0.00340621       0.00281624
      1.66756436E-04  1.95416200E-04  2.20419752E-04  2.90388125E-04  3.68023495E-04  6.34619093E-04  9.16221761E-04       0.00109035       0.00150483       0.00169501       0.00186063       0.00166598       0.00157364       0.00155190       0.00160255       0.00133152       0.00121773       0.00118846       0.00106957  7.25565711E-04  3.82229977E-04  2.26852164E-04  1.53299989E-04  9.93425201E-05  5.92637989E-05  4.71200619E-05  4.75370762E-05  4.79813243E-05  4.59440271E-05  5.90163363E-05  7.78036192E-05  1.36975519E-04  1.71361753E-04  2.40796784E-04  2.52659258E-04  2.67995230E-04  2.84392096E-04  2.83403031E-04  2.96616054E-04  3.20444320E-04  3.58244404E-04  3.83131875E-04  3.90520698E-04  3.78847792E-04  2.99131410E-04  2.45957228E-04  2.02840267E-04  1.66844446E-04  1.63826291E-04  1.93301967E-04  1.66877144E-04  1.48322884E-04  1.69781313E-04  1.70082159E-04  1.59952731E-04  1.45036509E-04  1.20443830E-04  1.13245173E-04  1.03892089E-04  9.98867545E-05  1.15797069E-04  1.33658643E-04  1.78751507E-04  2.55862949E-04  3.75758420E-04  5.53430058E-04  6.97563635E-04  7.99489440E-04  8.61408713E-04  8.87255301E-04       0.00100078       0.00120344  4.08558466E-04  4.90152219E-04  6.85869850E-09  6.20227514E-09  6.68419942E-09  7.27407518E-04  6.85194333E-04  7.82955904E-04  7.30043452E-04  6.32500218E-04  7.28213403E-04  8.25061405E-04  6.72741851E-04  6.28244365E-04  5.14135638E-04  5.79004525E-04  5.33084036E-04  5.57588181E-04  7.19640346E-04       0.00103558       0.00121623       0.00179672       0.00227229       0.00301145       0.00311574       0.00252107       0.00206913       0.00156620
      1.32442801E-04  1.38218937E-04  1.62979122E-04  2.44058858E-04  3.50274146E-04  5.32390899E-04  7.78695918E-04  9.52767092E-04       0.00118746       0.00153208       0.00147751       0.00118418       0.00110596       0.00100825  9.73453280E-04  8.68833333E-04  9.38077108E-04  8.34711129E-04  7.32334331E-04  4.78313654E-04  2.60755100E-04  1.89239945E-04  1.38111762E-04  9.63977654E-05  6.54913674E-05  5.26096628E-05  5.26029617E-05  5.37001761E-05  6.50164293E-05  9.30577153E-05  1.09621629E-04  1.68854764E-04  2.38971028E-04  2.90202297E-04  3.04385670E-04  2.95154954E-04  3.11533338E-04  3.23387125E-04  3.16280202E-04  3.43490829E-04  4.34627611E-04  4.53348970E-04  4.92767955E-04  4.04301129E-04  2.95972917E-04  2.18501140E-04  1.86973179E-04  1.53911096E-04  1.33886453E-04  1.08303371E-04  8.93028409E-05  7.79304901E-05  8.81294982E-05  8.34454113E-05  8.83039393E-05  9.50302492E-05  9.10082381E-05  8.79656363E-05  8.82720487E-05  8.67309791E-05  9.96942472E-05  1.44781065E-04  1.84150224E-04  2.82327353E-04  3.91650858E-04  6.55564712E-04  7.65637087E-04  8.17183172E-04  9.10649600E-04       0.00118575       0.00150575       0.00167846  3.37843347E-04  7.24697902E-09  8.23037372E-09  7.68572761E-09  9.43723855E-09       0.00109734       0.00122585       0.00138880       0.00133067  9.99458251E-04  8.70165590E-04  7.92854582E-04  6.20208099E-04  5.35196741E-04  4.27968014E-04  3.78744007E-04  3.50427232E-04  3.73733055E-04  4.83958924E-04  6.20725215E-04  7.27979990E-04       0.00112004       0.00157902       0.00188759       0.00189516       0.00144557       0.00119197  7.86044286E-04
      7.31158871E-05  8.75872720E-05  1.07599095E-04  1.62001903E-04  2.63206108E-04  3.75107134E-04  5.58902626E-04  7.42217700E-04  9.94297094E-04  9.13784024E-04  7.96463632E-04  7.33491499E-04  6.51557755E-04  6.94536895E-04  5.91626391E-04  4.86993464E-04  5.06876211E-04  5.03778923E-04  4.48703940E-04  3.13024299E-04  1.79320981E-04  1.34780843E-04  1.28264961E-04  9.56481672E-05  8.55391918E-05  7.39805837E-05  6.34637909E-05  7.02614925E-05  8.17992477E-05  1.17004158E-04  1.56648079E-04  2.34387815E-04  3.05054971E-04  3.62402323E-04  3.76337703E-04  3.75858071E-04  3.22565116E-04  3.14304401E-04  3.58382124E-04  3.85936553E-04  4.77393391E-04  5.20182250E-04  5.10392536E-04  3.97203316E-04  2.53938284E-04  1.94140637E-04  1.60747455E-04  1.37260198E-04  1.08610780E-04  6.89385852E-05  4.83579388E-05  4.44879588E-05  4.64362092E-05  5.38408021E-05  6.34789103E-05  7.92052742E-05  7.17631119E-05  7.34826317E-05  7.72615313E-05  8.55833423E-05  9.81157646E-05  1.38393865E-04  2.10557715E-04  3.41976760E-04  5.08486351E-04  6.72487076E-04  8.19114503E-04  8.58367712E-04       0.00110097       0.00163302       0.00213839       0.00225968  2.72169826E-04  3.54987540E-04  4.26980987E-04  5.00365277E-04  1.00897743E-08       0.00152990       0.00183581       0.00220815       0.00203461       0.00140351       0.00104781  8.05296469E-04  4.99060843E-04  3.84885818E-04  2.78407504E-04  2.32723571E-04  2.09575868E-04  2.24146919E-04  3.21354048E-04  4.31547029E-04  5.38095715E-04  7.44835357E-04  8.97760561E-04       0.00116883       0.00115880  8.75550613E-04  7.43104087E-04  4.64814802E-04