# File generated by Flopy version 3.9.1 on 06/24/2025 at 08:47:05.
BEGIN options
  auxiliary  TEMPERATURE
  SAVE_FLOWS
END options

BEGIN dimensions
  MAXBOUND  2500
END dimensions

BEGIN period  1
  1 1 1 3.00000000E-01 10
  1 2 1 3.00000000E-01 10
  1 3 1 3.00000000E-01 10
  1 4 1 3.00000000E-01 10
  1 5 1 3.00000000E-01 10
  1 6 1 3.00000000E-01 10
  1 7 1 3.00000000E-01 10
  1 8 1 3.00000000E-01 10
  1 9 1 3.00000000E-01 10
  1 10 1 3.00000000E-01 10
  1 11 1 3.00000000E-01 10
  1 12 1 3.00000000E-01 10
  1 13 1 3.00000000E-01 10
  1 14 1 3.00000000E-01 10
  1 15 1 3.00000000E-01 10
  1 16 1 3.00000000E-01 10
  1 17 1 3.00000000E-01 10
  1 18 1 3.00000000E-01 10
  1 19 1 3.00000000E-01 10
  1 20 1 3.00000000E-01 10
  1 21 1 3.00000000E-01 10
  1 22 1 3.00000000E-01 10
  1 23 1 3.00000000E-01 10
  1 24 1 3.00000000E-01 10
  1 25 1 3.00000000E-01 10
  1 26 1 3.00000000E-01 10
  1 27 1 3.00000000E-01 10
  1 28 1 3.00000000E-01 10
  1 29 1 3.00000000E-01 10
  1 30 1 3.00000000E-01 10
  1 31 1 3.00000000E-01 10
  1 32 1 3.00000000E-01 10
  1 33 1 3.00000000E-01 10
  1 34 1 3.00000000E-01 10
  1 35 1 3.00000000E-01 10
  1 36 1 3.00000000E-01 10
  1 37 1 3.00000000E-01 10
  1 38 1 3.00000000E-01 10
  1 39 1 3.00000000E-01 10
  1 40 1 3.00000000E-01 10
  1 41 1 3.00000000E-01 10
  1 42 1 3.00000000E-01 10
  1 43 1 3.00000000E-01 10
  1 44 1 3.00000000E-01 10
  1 45 1 3.00000000E-01 10
  1 46 1 3.00000000E-01 10
  1 47 1 3.00000000E-01 10
  1 48 1 3.00000000E-01 10
  1 49 1 3.00000000E-01 10
  1 50 1 3.00000000E-01 10
  2 1 1 3.00000000E-01 10
  2 2 1 3.00000000E-01 10
  2 3 1 3.00000000E-01 10
  2 4 1 3.00000000E-01 10
  2 5 1 3.00000000E-01 10
  2 6 1 3.00000000E-01 10
  2 7 1 3.00000000E-01 10
  2 8 1 3.00000000E-01 10
  2 9 1 3.00000000E-01 10
  2 10 1 3.00000000E-01 10
  2 11 1 3.00000000E-01 10
  2 12 1 3.00000000E-01 10
  2 13 1 3.00000000E-01 10
  2 14 1 3.00000000E-01 10
  2 15 1 3.00000000E-01 10
  2 16 1 3.00000000E-01 10
  2 17 1 3.00000000E-01 10
  2 18 1 3.00000000E-01 10
  2 19 1 3.00000000E-01 10
  2 20 1 3.00000000E-01 10
  2 21 1 3.00000000E-01 10
  2 22 1 3.00000000E-01 10
  2 23 1 3.00000000E-01 10
  2 24 1 3.00000000E-01 10
  2 25 1 3.00000000E-01 10
  2 26 1 3.00000000E-01 10
  2 27 1 3.00000000E-01 10
  2 28 1 3.00000000E-01 10
  2 29 1 3.00000000E-01 10
  2 30 1 3.00000000E-01 10
  2 31 1 3.00000000E-01 10
  2 32 1 3.00000000E-01 10
  2 33 1 3.00000000E-01 10
  2 34 1 3.00000000E-01 10
  2 35 1 3.00000000E-01 10
  2 36 1 3.00000000E-01 10
  2 37 1 3.00000000E-01 10
  2 38 1 3.00000000E-01 10
  2 39 1 3.00000000E-01 10
  2 40 1 3.00000000E-01 10
  2 41 1 3.00000000E-01 10
  2 42 1 3.00000000E-01 10
  2 43 1 3.00000000E-01 10
  2 44 1 3.00000000E-01 10
  2 45 1 3.00000000E-01 10
  2 46 1 3.00000000E-01 10
  2 47 1 3.00000000E-01 10
  2 48 1 3.00000000E-01 10
  2 49 1 3.00000000E-01 10
  2 50 1 3.00000000E-01 10
  3 1 1 3.00000000E-01 10
  3 2 1 3.00000000E-01 10
  3 3 1 3.00000000E-01 10
  3 4 1 3.00000000E-01 10
  3 5 1 3.00000000E-01 10
  3 6 1 3.00000000E-01 10
  3 7 1 3.00000000E-01 10
  3 8 1 3.00000000E-01 10
  3 9 1 3.00000000E-01 10
  3 10 1 3.00000000E-01 10
  3 11 1 3.00000000E-01 10
  3 12 1 3.00000000E-01 10
  3 13 1 3.00000000E-01 10
  3 14 1 3.00000000E-01 10
  3 15 1 3.00000000E-01 10
  3 16 1 3.00000000E-01 10
  3 17 1 3.00000000E-01 10
  3 18 1 3.00000000E-01 10
  3 19 1 3.00000000E-01 10
  3 20 1 3.00000000E-01 10
  3 21 1 3.00000000E-01 10
  3 22 1 3.00000000E-01 10
  3 23 1 3.00000000E-01 10
  3 24 1 3.00000000E-01 10
  3 25 1 3.00000000E-01 10
  3 26 1 3.00000000E-01 10
  3 27 1 3.00000000E-01 10
  3 28 1 3.00000000E-01 10
  3 29 1 3.00000000E-01 10
  3 30 1 3.00000000E-01 10
  3 31 1 3.00000000E-01 10
  3 32 1 3.00000000E-01 10
  3 33 1 3.00000000E-01 10
  3 34 1 3.00000000E-01 10
  3 35 1 3.00000000E-01 10
  3 36 1 3.00000000E-01 10
  3 37 1 3.00000000E-01 10
  3 38 1 3.00000000E-01 10
  3 39 1 3.00000000E-01 10
  3 40 1 3.00000000E-01 10
  3 41 1 3.00000000E-01 10
  3 42 1 3.00000000E-01 10
  3 43 1 3.00000000E-01 10
  3 44 1 3.00000000E-01 10
  3 45 1 3.00000000E-01 10
  3 46 1 3.00000000E-01 10
  3 47 1 3.00000000E-01 10
  3 48 1 3.00000000E-01 10
  3 49 1 3.00000000E-01 10
  3 50 1 3.00000000E-01 10
  4 1 1 3.00000000E-01 10
  4 2 1 3.00000000E-01 10
  4 3 1 3.00000000E-01 10
  4 4 1 3.00000000E-01 10
  4 5 1 3.00000000E-01 10
  4 6 1 3.00000000E-01 10
  4 7 1 3.00000000E-01 10
  4 8 1 3.00000000E-01 10
  4 9 1 3.00000000E-01 10
  4 10 1 3.00000000E-01 10
  4 11 1 3.00000000E-01 10
  4 12 1 3.00000000E-01 10
  4 13 1 3.00000000E-01 10
  4 14 1 3.00000000E-01 10
  4 15 1 3.00000000E-01 10
  4 16 1 3.00000000E-01 10
  4 17 1 3.00000000E-01 10
  4 18 1 3.00000000E-01 10
  4 19 1 3.00000000E-01 10
  4 20 1 3.00000000E-01 10
  4 21 1 3.00000000E-01 10
  4 22 1 3.00000000E-01 10
  4 23 1 3.00000000E-01 10
  4 24 1 3.00000000E-01 10
  4 25 1 3.00000000E-01 10
  4 26 1 3.00000000E-01 10
  4 27 1 3.00000000E-01 10
  4 28 1 3.00000000E-01 10
  4 29 1 3.00000000E-01 10
  4 30 1 3.00000000E-01 10
  4 31 1 3.00000000E-01 10
  4 32 1 3.00000000E-01 10
  4 33 1 3.00000000E-01 10
  4 34 1 3.00000000E-01 10
  4 35 1 3.00000000E-01 10
  4 36 1 3.00000000E-01 10
  4 37 1 3.00000000E-01 10
  4 38 1 3.00000000E-01 10
  4 39 1 3.00000000E-01 10
  4 40 1 3.00000000E-01 10
  4 41 1 3.00000000E-01 10
  4 42 1 3.00000000E-01 10
  4 43 1 3.00000000E-01 10
  4 44 1 3.00000000E-01 10
  4 45 1 3.00000000E-01 10
  4 46 1 3.00000000E-01 10
  4 47 1 3.00000000E-01 10
  4 48 1 3.00000000E-01 10
  4 49 1 3.00000000E-01 10
  4 50 1 3.00000000E-01 10
  5 1 1 3.00000000E-01 10
  5 2 1 3.00000000E-01 10
  5 3 1 3.00000000E-01 10
  5 4 1 3.00000000E-01 10
  5 5 1 3.00000000E-01 10
  5 6 1 3.00000000E-01 10
  5 7 1 3.00000000E-01 10
  5 8 1 3.00000000E-01 10
  5 9 1 3.00000000E-01 10
  5 10 1 3.00000000E-01 10
  5 11 1 3.00000000E-01 10
  5 12 1 3.00000000E-01 10
  5 13 1 3.00000000E-01 10
  5 14 1 3.00000000E-01 10
  5 15 1 3.00000000E-01 10
  5 16 1 3.00000000E-01 10
  5 17 1 3.00000000E-01 10
  5 18 1 3.00000000E-01 10
  5 19 1 3.00000000E-01 10
  5 20 1 3.00000000E-01 10
  5 21 1 3.00000000E-01 10
  5 22 1 3.00000000E-01 10
  5 23 1 3.00000000E-01 10
  5 24 1 3.00000000E-01 10
  5 25 1 3.00000000E-01 10
  5 26 1 3.00000000E-01 10
  5 27 1 3.00000000E-01 10
  5 28 1 3.00000000E-01 10
  5 29 1 3.00000000E-01 10
  5 30 1 3.00000000E-01 10
  5 31 1 3.00000000E-01 10
  5 32 1 3.00000000E-01 10
  5 33 1 3.00000000E-01 10
  5 34 1 3.00000000E-01 10
  5 35 1 3.00000000E-01 10
  5 36 1 3.00000000E-01 10
  5 37 1 3.00000000E-01 10
  5 38 1 3.00000000E-01 10
  5 39 1 3.00000000E-01 10
  5 40 1 3.00000000E-01 10
  5 41 1 3.00000000E-01 10
  5 42 1 3.00000000E-01 10
  5 43 1 3.00000000E-01 10
  5 44 1 3.00000000E-01 10
  5 45 1 3.00000000E-01 10
  5 46 1 3.00000000E-01 10
  5 47 1 3.00000000E-01 10
  5 48 1 3.00000000E-01 10
  5 49 1 3.00000000E-01 10
  5 50 1 3.00000000E-01 10
  6 1 1 3.00000000E-01 10
  6 2 1 3.00000000E-01 10
  6 3 1 3.00000000E-01 10
  6 4 1 3.00000000E-01 10
  6 5 1 3.00000000E-01 10
  6 6 1 3.00000000E-01 10
  6 7 1 3.00000000E-01 10
  6 8 1 3.00000000E-01 10
  6 9 1 3.00000000E-01 10
  6 10 1 3.00000000E-01 10
  6 11 1 3.00000000E-01 10
  6 12 1 3.00000000E-01 10
  6 13 1 3.00000000E-01 10
  6 14 1 3.00000000E-01 10
  6 15 1 3.00000000E-01 10
  6 16 1 3.00000000E-01 10
  6 17 1 3.00000000E-01 10
  6 18 1 3.00000000E-01 10
  6 19 1 3.00000000E-01 10
  6 20 1 3.00000000E-01 10
  6 21 1 3.00000000E-01 10
  6 22 1 3.00000000E-01 10
  6 23 1 3.00000000E-01 10
  6 24 1 3.00000000E-01 10
  6 25 1 3.00000000E-01 10
  6 26 1 3.00000000E-01 10
  6 27 1 3.00000000E-01 10
  6 28 1 3.00000000E-01 10
  6 29 1 3.00000000E-01 10
  6 30 1 3.00000000E-01 10
  6 31 1 3.00000000E-01 10
  6 32 1 3.00000000E-01 10
  6 33 1 3.00000000E-01 10
  6 34 1 3.00000000E-01 10
  6 35 1 3.00000000E-01 10
  6 36 1 3.00000000E-01 10
  6 37 1 3.00000000E-01 10
  6 38 1 3.00000000E-01 10
  6 39 1 3.00000000E-01 10
  6 40 1 3.00000000E-01 10
  6 41 1 3.00000000E-01 10
  6 42 1 3.00000000E-01 10
  6 43 1 3.00000000E-01 10
  6 44 1 3.00000000E-01 10
  6 45 1 3.00000000E-01 10
  6 46 1 3.00000000E-01 10
  6 47 1 3.00000000E-01 10
  6 48 1 3.00000000E-01 10
  6 49 1 3.00000000E-01 10
  6 50 1 3.00000000E-01 10
  7 1 1 3.00000000E-01 10
  7 2 1 3.00000000E-01 10
  7 3 1 3.00000000E-01 10
  7 4 1 3.00000000E-01 10
  7 5 1 3.00000000E-01 10
  7 6 1 3.00000000E-01 10
  7 7 1 3.00000000E-01 10
  7 8 1 3.00000000E-01 10
  7 9 1 3.00000000E-01 10
  7 10 1 3.00000000E-01 10
  7 11 1 3.00000000E-01 10
  7 12 1 3.00000000E-01 10
  7 13 1 3.00000000E-01 10
  7 14 1 3.00000000E-01 10
  7 15 1 3.00000000E-01 10
  7 16 1 3.00000000E-01 10
  7 17 1 3.00000000E-01 10
  7 18 1 3.00000000E-01 10
  7 19 1 3.00000000E-01 10
  7 20 1 3.00000000E-01 10
  7 21 1 3.00000000E-01 10
  7 22 1 3.00000000E-01 10
  7 23 1 3.00000000E-01 10
  7 24 1 3.00000000E-01 10
  7 25 1 3.00000000E-01 10
  7 26 1 3.00000000E-01 10
  7 27 1 3.00000000E-01 10
  7 28 1 3.00000000E-01 10
  7 29 1 3.00000000E-01 10
  7 30 1 3.00000000E-01 10
  7 31 1 3.00000000E-01 10
  7 32 1 3.00000000E-01 10
  7 33 1 3.00000000E-01 10
  7 34 1 3.00000000E-01 10
  7 35 1 3.00000000E-01 10
  7 36 1 3.00000000E-01 10
  7 37 1 3.00000000E-01 10
  7 38 1 3.00000000E-01 10
  7 39 1 3.00000000E-01 10
  7 40 1 3.00000000E-01 10
  7 41 1 3.00000000E-01 10
  7 42 1 3.00000000E-01 10
  7 43 1 3.00000000E-01 10
  7 44 1 3.00000000E-01 10
  7 45 1 3.00000000E-01 10
  7 46 1 3.00000000E-01 10
  7 47 1 3.00000000E-01 10
  7 48 1 3.00000000E-01 10
  7 49 1 3.00000000E-01 10
  7 50 1 3.00000000E-01 10
  8 1 1 3.00000000E-01 10
  8 2 1 3.00000000E-01 10
  8 3 1 3.00000000E-01 10
  8 4 1 3.00000000E-01 10
  8 5 1 3.00000000E-01 10
  8 6 1 3.00000000E-01 10
  8 7 1 3.00000000E-01 10
  8 8 1 3.00000000E-01 10
  8 9 1 3.00000000E-01 10
  8 10 1 3.00000000E-01 10
  8 11 1 3.00000000E-01 10
  8 12 1 3.00000000E-01 10
  8 13 1 3.00000000E-01 10
  8 14 1 3.00000000E-01 10
  8 15 1 3.00000000E-01 10
  8 16 1 3.00000000E-01 10
  8 17 1 3.00000000E-01 10
  8 18 1 3.00000000E-01 10
  8 19 1 3.00000000E-01 10
  8 20 1 3.00000000E-01 10
  8 21 1 3.00000000E-01 10
  8 22 1 3.00000000E-01 10
  8 23 1 3.00000000E-01 10
  8 24 1 3.00000000E-01 10
  8 25 1 3.00000000E-01 10
  8 26 1 3.00000000E-01 10
  8 27 1 3.00000000E-01 10
  8 28 1 3.00000000E-01 10
  8 29 1 3.00000000E-01 10
  8 30 1 3.00000000E-01 10
  8 31 1 3.00000000E-01 10
  8 32 1 3.00000000E-01 10
  8 33 1 3.00000000E-01 10
  8 34 1 3.00000000E-01 10
  8 35 1 3.00000000E-01 10
  8 36 1 3.00000000E-01 10
  8 37 1 3.00000000E-01 10
  8 38 1 3.00000000E-01 10
  8 39 1 3.00000000E-01 10
  8 40 1 3.00000000E-01 10
  8 41 1 3.00000000E-01 10
  8 42 1 3.00000000E-01 10
  8 43 1 3.00000000E-01 10
  8 44 1 3.00000000E-01 10
  8 45 1 3.00000000E-01 10
  8 46 1 3.00000000E-01 10
  8 47 1 3.00000000E-01 10
  8 48 1 3.00000000E-01 10
  8 49 1 3.00000000E-01 10
  8 50 1 3.00000000E-01 10
  9 1 1 3.00000000E-01 10
  9 2 1 3.00000000E-01 10
  9 3 1 3.00000000E-01 10
  9 4 1 3.00000000E-01 10
  9 5 1 3.00000000E-01 10
  9 6 1 3.00000000E-01 10
  9 7 1 3.00000000E-01 10
  9 8 1 3.00000000E-01 10
  9 9 1 3.00000000E-01 10
  9 10 1 3.00000000E-01 10
  9 11 1 3.00000000E-01 10
  9 12 1 3.00000000E-01 10
  9 13 1 3.00000000E-01 10
  9 14 1 3.00000000E-01 10
  9 15 1 3.00000000E-01 10
  9 16 1 3.00000000E-01 10
  9 17 1 3.00000000E-01 10
  9 18 1 3.00000000E-01 10
  9 19 1 3.00000000E-01 10
  9 20 1 3.00000000E-01 10
  9 21 1 3.00000000E-01 10
  9 22 1 3.00000000E-01 10
  9 23 1 3.00000000E-01 10
  9 24 1 3.00000000E-01 10
  9 25 1 3.00000000E-01 10
  9 26 1 3.00000000E-01 10
  9 27 1 3.00000000E-01 10
  9 28 1 3.00000000E-01 10
  9 29 1 3.00000000E-01 10
  9 30 1 3.00000000E-01 10
  9 31 1 3.00000000E-01 10
  9 32 1 3.00000000E-01 10
  9 33 1 3.00000000E-01 10
  9 34 1 3.00000000E-01 10
  9 35 1 3.00000000E-01 10
  9 36 1 3.00000000E-01 10
  9 37 1 3.00000000E-01 10
  9 38 1 3.00000000E-01 10
  9 39 1 3.00000000E-01 10
  9 40 1 3.00000000E-01 10
  9 41 1 3.00000000E-01 10
  9 42 1 3.00000000E-01 10
  9 43 1 3.00000000E-01 10
  9 44 1 3.00000000E-01 10
  9 45 1 3.00000000E-01 10
  9 46 1 3.00000000E-01 10
  9 47 1 3.00000000E-01 10
  9 48 1 3.00000000E-01 10
  9 49 1 3.00000000E-01 10
  9 50 1 3.00000000E-01 10
  10 1 1 3.00000000E-01 10
  10 2 1 3.00000000E-01 10
  10 3 1 3.00000000E-01 10
  10 4 1 3.00000000E-01 10
  10 5 1 3.00000000E-01 10
  10 6 1 3.00000000E-01 10
  10 7 1 3.00000000E-01 10
  10 8 1 3.00000000E-01 10
  10 9 1 3.00000000E-01 10
  10 10 1 3.00000000E-01 10
  10 11 1 3.00000000E-01 10
  10 12 1 3.00000000E-01 10
  10 13 1 3.00000000E-01 10
  10 14 1 3.00000000E-01 10
  10 15 1 3.00000000E-01 10
  10 16 1 3.00000000E-01 10
  10 17 1 3.00000000E-01 10
  10 18 1 3.00000000E-01 10
  10 19 1 3.00000000E-01 10
  10 20 1 3.00000000E-01 10
  10 21 1 3.00000000E-01 10
  10 22 1 3.00000000E-01 10
  10 23 1 3.00000000E-01 10
  10 24 1 3.00000000E-01 10
  10 25 1 3.00000000E-01 10
  10 26 1 3.00000000E-01 10
  10 27 1 3.00000000E-01 10
  10 28 1 3.00000000E-01 10
  10 29 1 3.00000000E-01 10
  10 30 1 3.00000000E-01 10
  10 31 1 3.00000000E-01 10
  10 32 1 3.00000000E-01 10
  10 33 1 3.00000000E-01 10
  10 34 1 3.00000000E-01 10
  10 35 1 3.00000000E-01 10
  10 36 1 3.00000000E-01 10
  10 37 1 3.00000000E-01 10
  10 38 1 3.00000000E-01 10
  10 39 1 3.00000000E-01 10
  10 40 1 3.00000000E-01 10
  10 41 1 3.00000000E-01 10
  10 42 1 3.00000000E-01 10
  10 43 1 3.00000000E-01 10
  10 44 1 3.00000000E-01 10
  10 45 1 3.00000000E-01 10
  10 46 1 3.00000000E-01 10
  10 47 1 3.00000000E-01 10
  10 48 1 3.00000000E-01 10
  10 49 1 3.00000000E-01 10
  10 50 1 3.00000000E-01 10
  11 1 1 3.00000000E-01 10
  11 2 1 3.00000000E-01 10
  11 3 1 3.00000000E-01 10
  11 4 1 3.00000000E-01 10
  11 5 1 3.00000000E-01 10
  11 6 1 3.00000000E-01 10
  11 7 1 3.00000000E-01 10
  11 8 1 3.00000000E-01 10
  11 9 1 3.00000000E-01 10
  11 10 1 3.00000000E-01 10
  11 11 1 3.00000000E-01 10
  11 12 1 3.00000000E-01 10
  11 13 1 3.00000000E-01 10
  11 14 1 3.00000000E-01 10
  11 15 1 3.00000000E-01 10
  11 16 1 3.00000000E-01 10
  11 17 1 3.00000000E-01 10
  11 18 1 3.00000000E-01 10
  11 19 1 3.00000000E-01 10
  11 20 1 3.00000000E-01 10
  11 21 1 3.00000000E-01 10
  11 22 1 3.00000000E-01 10
  11 23 1 3.00000000E-01 10
  11 24 1 3.00000000E-01 10
  11 25 1 3.00000000E-01 10
  11 26 1 3.00000000E-01 10
  11 27 1 3.00000000E-01 10
  11 28 1 3.00000000E-01 10
  11 29 1 3.00000000E-01 10
  11 30 1 3.00000000E-01 10
  11 31 1 3.00000000E-01 10
  11 32 1 3.00000000E-01 10
  11 33 1 3.00000000E-01 10
  11 34 1 3.00000000E-01 10
  11 35 1 3.00000000E-01 10
  11 36 1 3.00000000E-01 10
  11 37 1 3.00000000E-01 10
  11 38 1 3.00000000E-01 10
  11 39 1 3.00000000E-01 10
  11 40 1 3.00000000E-01 10
  11 41 1 3.00000000E-01 10
  11 42 1 3.00000000E-01 10
  11 43 1 3.00000000E-01 10
  11 44 1 3.00000000E-01 10
  11 45 1 3.00000000E-01 10
  11 46 1 3.00000000E-01 10
  11 47 1 3.00000000E-01 10
  11 48 1 3.00000000E-01 10
  11 49 1 3.00000000E-01 10
  11 50 1 3.00000000E-01 10
  12 1 1 3.00000000E-01 10
  12 2 1 3.00000000E-01 10
  12 3 1 3.00000000E-01 10
  12 4 1 3.00000000E-01 10
  12 5 1 3.00000000E-01 10
  12 6 1 3.00000000E-01 10
  12 7 1 3.00000000E-01 10
  12 8 1 3.00000000E-01 10
  12 9 1 3.00000000E-01 10
  12 10 1 3.00000000E-01 10
  12 11 1 3.00000000E-01 10
  12 12 1 3.00000000E-01 10
  12 13 1 3.00000000E-01 10
  12 14 1 3.00000000E-01 10
  12 15 1 3.00000000E-01 10
  12 16 1 3.00000000E-01 10
  12 17 1 3.00000000E-01 10
  12 18 1 3.00000000E-01 10
  12 19 1 3.00000000E-01 10
  12 20 1 3.00000000E-01 10
  12 21 1 3.00000000E-01 10
  12 22 1 3.00000000E-01 10
  12 23 1 3.00000000E-01 10
  12 24 1 3.00000000E-01 10
  12 25 1 3.00000000E-01 10
  12 26 1 3.00000000E-01 10
  12 27 1 3.00000000E-01 10
  12 28 1 3.00000000E-01 10
  12 29 1 3.00000000E-01 10
  12 30 1 3.00000000E-01 10
  12 31 1 3.00000000E-01 10
  12 32 1 3.00000000E-01 10
  12 33 1 3.00000000E-01 10
  12 34 1 3.00000000E-01 10
  12 35 1 3.00000000E-01 10
  12 36 1 3.00000000E-01 10
  12 37 1 3.00000000E-01 10
  12 38 1 3.00000000E-01 10
  12 39 1 3.00000000E-01 10
  12 40 1 3.00000000E-01 10
  12 41 1 3.00000000E-01 10
  12 42 1 3.00000000E-01 10
  12 43 1 3.00000000E-01 10
  12 44 1 3.00000000E-01 10
  12 45 1 3.00000000E-01 10
  12 46 1 3.00000000E-01 10
  12 47 1 3.00000000E-01 10
  12 48 1 3.00000000E-01 10
  12 49 1 3.00000000E-01 10
  12 50 1 3.00000000E-01 10
  13 1 1 3.00000000E-01 10
  13 2 1 3.00000000E-01 10
  13 3 1 3.00000000E-01 10
  13 4 1 3.00000000E-01 10
  13 5 1 3.00000000E-01 10
  13 6 1 3.00000000E-01 10
  13 7 1 3.00000000E-01 10
  13 8 1 3.00000000E-01 10
  13 9 1 3.00000000E-01 10
  13 10 1 3.00000000E-01 10
  13 11 1 3.00000000E-01 10
  13 12 1 3.00000000E-01 10
  13 13 1 3.00000000E-01 10
  13 14 1 3.00000000E-01 10
  13 15 1 3.00000000E-01 10
  13 16 1 3.00000000E-01 10
  13 17 1 3.00000000E-01 10
  13 18 1 3.00000000E-01 10
  13 19 1 3.00000000E-01 10
  13 20 1 3.00000000E-01 10
  13 21 1 3.00000000E-01 10
  13 22 1 3.00000000E-01 10
  13 23 1 3.00000000E-01 10
  13 24 1 3.00000000E-01 10
  13 25 1 3.00000000E-01 10
  13 26 1 3.00000000E-01 10
  13 27 1 3.00000000E-01 10
  13 28 1 3.00000000E-01 10
  13 29 1 3.00000000E-01 10
  13 30 1 3.00000000E-01 10
  13 31 1 3.00000000E-01 10
  13 32 1 3.00000000E-01 10
  13 33 1 3.00000000E-01 10
  13 34 1 3.00000000E-01 10
  13 35 1 3.00000000E-01 10
  13 36 1 3.00000000E-01 10
  13 37 1 3.00000000E-01 10
  13 38 1 3.00000000E-01 10
  13 39 1 3.00000000E-01 10
  13 40 1 3.00000000E-01 10
  13 41 1 3.00000000E-01 10
  13 42 1 3.00000000E-01 10
  13 43 1 3.00000000E-01 10
  13 44 1 3.00000000E-01 10
  13 45 1 3.00000000E-01 10
  13 46 1 3.00000000E-01 10
  13 47 1 3.00000000E-01 10
  13 48 1 3.00000000E-01 10
  13 49 1 3.00000000E-01 10
  13 50 1 3.00000000E-01 10
  14 1 1 3.00000000E-01 10
  14 2 1 3.00000000E-01 10
  14 3 1 3.00000000E-01 10
  14 4 1 3.00000000E-01 10
  14 5 1 3.00000000E-01 10
  14 6 1 3.00000000E-01 10
  14 7 1 3.00000000E-01 10
  14 8 1 3.00000000E-01 10
  14 9 1 3.00000000E-01 10
  14 10 1 3.00000000E-01 10
  14 11 1 3.00000000E-01 10
  14 12 1 3.00000000E-01 10
  14 13 1 3.00000000E-01 10
  14 14 1 3.00000000E-01 10
  14 15 1 3.00000000E-01 10
  14 16 1 3.00000000E-01 10
  14 17 1 3.00000000E-01 10
  14 18 1 3.00000000E-01 10
  14 19 1 3.00000000E-01 10
  14 20 1 3.00000000E-01 10
  14 21 1 3.00000000E-01 10
  14 22 1 3.00000000E-01 10
  14 23 1 3.00000000E-01 10
  14 24 1 3.00000000E-01 10
  14 25 1 3.00000000E-01 10
  14 26 1 3.00000000E-01 10
  14 27 1 3.00000000E-01 10
  14 28 1 3.00000000E-01 10
  14 29 1 3.00000000E-01 10
  14 30 1 3.00000000E-01 10
  14 31 1 3.00000000E-01 10
  14 32 1 3.00000000E-01 10
  14 33 1 3.00000000E-01 10
  14 34 1 3.00000000E-01 10
  14 35 1 3.00000000E-01 10
  14 36 1 3.00000000E-01 10
  14 37 1 3.00000000E-01 10
  14 38 1 3.00000000E-01 10
  14 39 1 3.00000000E-01 10
  14 40 1 3.00000000E-01 10
  14 41 1 3.00000000E-01 10
  14 42 1 3.00000000E-01 10
  14 43 1 3.00000000E-01 10
  14 44 1 3.00000000E-01 10
  14 45 1 3.00000000E-01 10
  14 46 1 3.00000000E-01 10
  14 47 1 3.00000000E-01 10
  14 48 1 3.00000000E-01 10
  14 49 1 3.00000000E-01 10
  14 50 1 3.00000000E-01 10
  15 1 1 3.00000000E-01 10
  15 2 1 3.00000000E-01 10
  15 3 1 3.00000000E-01 10
  15 4 1 3.00000000E-01 10
  15 5 1 3.00000000E-01 10
  15 6 1 3.00000000E-01 10
  15 7 1 3.00000000E-01 10
  15 8 1 3.00000000E-01 10
  15 9 1 3.00000000E-01 10
  15 10 1 3.00000000E-01 10
  15 11 1 3.00000000E-01 10
  15 12 1 3.00000000E-01 10
  15 13 1 3.00000000E-01 10
  15 14 1 3.00000000E-01 10
  15 15 1 3.00000000E-01 10
  15 16 1 3.00000000E-01 10
  15 17 1 3.00000000E-01 10
  15 18 1 3.00000000E-01 10
  15 19 1 3.00000000E-01 10
  15 20 1 3.00000000E-01 10
  15 21 1 3.00000000E-01 10
  15 22 1 3.00000000E-01 10
  15 23 1 3.00000000E-01 10
  15 24 1 3.00000000E-01 10
  15 25 1 3.00000000E-01 10
  15 26 1 3.00000000E-01 10
  15 27 1 3.00000000E-01 10
  15 28 1 3.00000000E-01 10
  15 29 1 3.00000000E-01 10
  15 30 1 3.00000000E-01 10
  15 31 1 3.00000000E-01 10
  15 32 1 3.00000000E-01 10
  15 33 1 3.00000000E-01 10
  15 34 1 3.00000000E-01 10
  15 35 1 3.00000000E-01 10
  15 36 1 3.00000000E-01 10
  15 37 1 3.00000000E-01 10
  15 38 1 3.00000000E-01 10
  15 39 1 3.00000000E-01 10
  15 40 1 3.00000000E-01 10
  15 41 1 3.00000000E-01 10
  15 42 1 3.00000000E-01 10
  15 43 1 3.00000000E-01 10
  15 44 1 3.00000000E-01 10
  15 45 1 3.00000000E-01 10
  15 46 1 3.00000000E-01 10
  15 47 1 3.00000000E-01 10
  15 48 1 3.00000000E-01 10
  15 49 1 3.00000000E-01 10
  15 50 1 3.00000000E-01 10
  16 1 1 3.00000000E-01 10
  16 2 1 3.00000000E-01 10
  16 3 1 3.00000000E-01 10
  16 4 1 3.00000000E-01 10
  16 5 1 3.00000000E-01 10
  16 6 1 3.00000000E-01 10
  16 7 1 3.00000000E-01 10
  16 8 1 3.00000000E-01 10
  16 9 1 3.00000000E-01 10
  16 10 1 3.00000000E-01 10
  16 11 1 3.00000000E-01 10
  16 12 1 3.00000000E-01 10
  16 13 1 3.00000000E-01 10
  16 14 1 3.00000000E-01 10
  16 15 1 3.00000000E-01 10
  16 16 1 3.00000000E-01 10
  16 17 1 3.00000000E-01 10
  16 18 1 3.00000000E-01 10
  16 19 1 3.00000000E-01 10
  16 20 1 3.00000000E-01 10
  16 21 1 3.00000000E-01 10
  16 22 1 3.00000000E-01 10
  16 23 1 3.00000000E-01 10
  16 24 1 3.00000000E-01 10
  16 25 1 3.00000000E-01 10
  16 26 1 3.00000000E-01 10
  16 27 1 3.00000000E-01 10
  16 28 1 3.00000000E-01 10
  16 29 1 3.00000000E-01 10
  16 30 1 3.00000000E-01 10
  16 31 1 3.00000000E-01 10
  16 32 1 3.00000000E-01 10
  16 33 1 3.00000000E-01 10
  16 34 1 3.00000000E-01 10
  16 35 1 3.00000000E-01 10
  16 36 1 3.00000000E-01 10
  16 37 1 3.00000000E-01 10
  16 38 1 3.00000000E-01 10
  16 39 1 3.00000000E-01 10
  16 40 1 3.00000000E-01 10
  16 41 1 3.00000000E-01 10
  16 42 1 3.00000000E-01 10
  16 43 1 3.00000000E-01 10
  16 44 1 3.00000000E-01 10
  16 45 1 3.00000000E-01 10
  16 46 1 3.00000000E-01 10
  16 47 1 3.00000000E-01 10
  16 48 1 3.00000000E-01 10
  16 49 1 3.00000000E-01 10
  16 50 1 3.00000000E-01 10
  17 1 1 3.00000000E-01 10
  17 2 1 3.00000000E-01 10
  17 3 1 3.00000000E-01 10
  17 4 1 3.00000000E-01 10
  17 5 1 3.00000000E-01 10
  17 6 1 3.00000000E-01 10
  17 7 1 3.00000000E-01 10
  17 8 1 3.00000000E-01 10
  17 9 1 3.00000000E-01 10
  17 10 1 3.00000000E-01 10
  17 11 1 3.00000000E-01 10
  17 12 1 3.00000000E-01 10
  17 13 1 3.00000000E-01 10
  17 14 1 3.00000000E-01 10
  17 15 1 3.00000000E-01 10
  17 16 1 3.00000000E-01 10
  17 17 1 3.00000000E-01 10
  17 18 1 3.00000000E-01 10
  17 19 1 3.00000000E-01 10
  17 20 1 3.00000000E-01 10
  17 21 1 3.00000000E-01 10
  17 22 1 3.00000000E-01 10
  17 23 1 3.00000000E-01 10
  17 24 1 3.00000000E-01 10
  17 25 1 3.00000000E-01 10
  17 26 1 3.00000000E-01 10
  17 27 1 3.00000000E-01 10
  17 28 1 3.00000000E-01 10
  17 29 1 3.00000000E-01 10
  17 30 1 3.00000000E-01 10
  17 31 1 3.00000000E-01 10
  17 32 1 3.00000000E-01 10
  17 33 1 3.00000000E-01 10
  17 34 1 3.00000000E-01 10
  17 35 1 3.00000000E-01 10
  17 36 1 3.00000000E-01 10
  17 37 1 3.00000000E-01 10
  17 38 1 3.00000000E-01 10
  17 39 1 3.00000000E-01 10
  17 40 1 3.00000000E-01 10
  17 41 1 3.00000000E-01 10
  17 42 1 3.00000000E-01 10
  17 43 1 3.00000000E-01 10
  17 44 1 3.00000000E-01 10
  17 45 1 3.00000000E-01 10
  17 46 1 3.00000000E-01 10
  17 47 1 3.00000000E-01 10
  17 48 1 3.00000000E-01 10
  17 49 1 3.00000000E-01 10
  17 50 1 3.00000000E-01 10
  18 1 1 3.00000000E-01 10
  18 2 1 3.00000000E-01 10
  18 3 1 3.00000000E-01 10
  18 4 1 3.00000000E-01 10
  18 5 1 3.00000000E-01 10
  18 6 1 3.00000000E-01 10
  18 7 1 3.00000000E-01 10
  18 8 1 3.00000000E-01 10
  18 9 1 3.00000000E-01 10
  18 10 1 3.00000000E-01 10
  18 11 1 3.00000000E-01 10
  18 12 1 3.00000000E-01 10
  18 13 1 3.00000000E-01 10
  18 14 1 3.00000000E-01 10
  18 15 1 3.00000000E-01 10
  18 16 1 3.00000000E-01 10
  18 17 1 3.00000000E-01 10
  18 18 1 3.00000000E-01 10
  18 19 1 3.00000000E-01 10
  18 20 1 3.00000000E-01 10
  18 21 1 3.00000000E-01 10
  18 22 1 3.00000000E-01 10
  18 23 1 3.00000000E-01 10
  18 24 1 3.00000000E-01 10
  18 25 1 3.00000000E-01 10
  18 26 1 3.00000000E-01 10
  18 27 1 3.00000000E-01 10
  18 28 1 3.00000000E-01 10
  18 29 1 3.00000000E-01 10
  18 30 1 3.00000000E-01 10
  18 31 1 3.00000000E-01 10
  18 32 1 3.00000000E-01 10
  18 33 1 3.00000000E-01 10
  18 34 1 3.00000000E-01 10
  18 35 1 3.00000000E-01 10
  18 36 1 3.00000000E-01 10
  18 37 1 3.00000000E-01 10
  18 38 1 3.00000000E-01 10
  18 39 1 3.00000000E-01 10
  18 40 1 3.00000000E-01 10
  18 41 1 3.00000000E-01 10
  18 42 1 3.00000000E-01 10
  18 43 1 3.00000000E-01 10
  18 44 1 3.00000000E-01 10
  18 45 1 3.00000000E-01 10
  18 46 1 3.00000000E-01 10
  18 47 1 3.00000000E-01 10
  18 48 1 3.00000000E-01 10
  18 49 1 3.00000000E-01 10
  18 50 1 3.00000000E-01 10
  19 1 1 3.00000000E-01 10
  19 2 1 3.00000000E-01 10
  19 3 1 3.00000000E-01 10
  19 4 1 3.00000000E-01 10
  19 5 1 3.00000000E-01 10
  19 6 1 3.00000000E-01 10
  19 7 1 3.00000000E-01 10
  19 8 1 3.00000000E-01 10
  19 9 1 3.00000000E-01 10
  19 10 1 3.00000000E-01 10
  19 11 1 3.00000000E-01 10
  19 12 1 3.00000000E-01 10
  19 13 1 3.00000000E-01 10
  19 14 1 3.00000000E-01 10
  19 15 1 3.00000000E-01 10
  19 16 1 3.00000000E-01 10
  19 17 1 3.00000000E-01 10
  19 18 1 3.00000000E-01 10
  19 19 1 3.00000000E-01 10
  19 20 1 3.00000000E-01 10
  19 21 1 3.00000000E-01 10
  19 22 1 3.00000000E-01 10
  19 23 1 3.00000000E-01 10
  19 24 1 3.00000000E-01 10
  19 25 1 3.00000000E-01 10
  19 26 1 3.00000000E-01 10
  19 27 1 3.00000000E-01 10
  19 28 1 3.00000000E-01 10
  19 29 1 3.00000000E-01 10
  19 30 1 3.00000000E-01 10
  19 31 1 3.00000000E-01 10
  19 32 1 3.00000000E-01 10
  19 33 1 3.00000000E-01 10
  19 34 1 3.00000000E-01 10
  19 35 1 3.00000000E-01 10
  19 36 1 3.00000000E-01 10
  19 37 1 3.00000000E-01 10
  19 38 1 3.00000000E-01 10
  19 39 1 3.00000000E-01 10
  19 40 1 3.00000000E-01 10
  19 41 1 3.00000000E-01 10
  19 42 1 3.00000000E-01 10
  19 43 1 3.00000000E-01 10
  19 44 1 3.00000000E-01 10
  19 45 1 3.00000000E-01 10
  19 46 1 3.00000000E-01 10
  19 47 1 3.00000000E-01 10
  19 48 1 3.00000000E-01 10
  19 49 1 3.00000000E-01 10
  19 50 1 3.00000000E-01 10
  20 1 1 3.00000000E-01 10
  20 2 1 3.00000000E-01 10
  20 3 1 3.00000000E-01 10
  20 4 1 3.00000000E-01 10
  20 5 1 3.00000000E-01 10
  20 6 1 3.00000000E-01 10
  20 7 1 3.00000000E-01 10
  20 8 1 3.00000000E-01 10
  20 9 1 3.00000000E-01 10
  20 10 1 3.00000000E-01 10
  20 11 1 3.00000000E-01 10
  20 12 1 3.00000000E-01 10
  20 13 1 3.00000000E-01 10
  20 14 1 3.00000000E-01 10
  20 15 1 3.00000000E-01 10
  20 16 1 3.00000000E-01 10
  20 17 1 3.00000000E-01 10
  20 18 1 3.00000000E-01 10
  20 19 1 3.00000000E-01 10
  20 20 1 3.00000000E-01 10
  20 21 1 3.00000000E-01 10
  20 22 1 3.00000000E-01 10
  20 23 1 3.00000000E-01 10
  20 24 1 3.00000000E-01 10
  20 25 1 3.00000000E-01 10
  20 26 1 3.00000000E-01 10
  20 27 1 3.00000000E-01 10
  20 28 1 3.00000000E-01 10
  20 29 1 3.00000000E-01 10
  20 30 1 3.00000000E-01 10
  20 31 1 3.00000000E-01 10
  20 32 1 3.00000000E-01 10
  20 33 1 3.00000000E-01 10
  20 34 1 3.00000000E-01 10
  20 35 1 3.00000000E-01 10
  20 36 1 3.00000000E-01 10
  20 37 1 3.00000000E-01 10
  20 38 1 3.00000000E-01 10
  20 39 1 3.00000000E-01 10
  20 40 1 3.00000000E-01 10
  20 41 1 3.00000000E-01 10
  20 42 1 3.00000000E-01 10
  20 43 1 3.00000000E-01 10
  20 44 1 3.00000000E-01 10
  20 45 1 3.00000000E-01 10
  20 46 1 3.00000000E-01 10
  20 47 1 3.00000000E-01 10
  20 48 1 3.00000000E-01 10
  20 49 1 3.00000000E-01 10
  20 50 1 3.00000000E-01 10
  21 1 1 3.00000000E-01 10
  21 2 1 3.00000000E-01 10
  21 3 1 3.00000000E-01 10
  21 4 1 3.00000000E-01 10
  21 5 1 3.00000000E-01 10
  21 6 1 3.00000000E-01 10
  21 7 1 3.00000000E-01 10
  21 8 1 3.00000000E-01 10
  21 9 1 3.00000000E-01 10
  21 10 1 3.00000000E-01 10
  21 11 1 3.00000000E-01 10
  21 12 1 3.00000000E-01 10
  21 13 1 3.00000000E-01 10
  21 14 1 3.00000000E-01 10
  21 15 1 3.00000000E-01 10
  21 16 1 3.00000000E-01 10
  21 17 1 3.00000000E-01 10
  21 18 1 3.00000000E-01 10
  21 19 1 3.00000000E-01 10
  21 20 1 3.00000000E-01 10
  21 21 1 3.00000000E-01 10
  21 22 1 3.00000000E-01 10
  21 23 1 3.00000000E-01 10
  21 24 1 3.00000000E-01 10
  21 25 1 3.00000000E-01 10
  21 26 1 3.00000000E-01 10
  21 27 1 3.00000000E-01 10
  21 28 1 3.00000000E-01 10
  21 29 1 3.00000000E-01 10
  21 30 1 3.00000000E-01 10
  21 31 1 3.00000000E-01 10
  21 32 1 3.00000000E-01 10
  21 33 1 3.00000000E-01 10
  21 34 1 3.00000000E-01 10
  21 35 1 3.00000000E-01 10
  21 36 1 3.00000000E-01 10
  21 37 1 3.00000000E-01 10
  21 38 1 3.00000000E-01 10
  21 39 1 3.00000000E-01 10
  21 40 1 3.00000000E-01 10
  21 41 1 3.00000000E-01 10
  21 42 1 3.00000000E-01 10
  21 43 1 3.00000000E-01 10
  21 44 1 3.00000000E-01 10
  21 45 1 3.00000000E-01 10
  21 46 1 3.00000000E-01 10
  21 47 1 3.00000000E-01 10
  21 48 1 3.00000000E-01 10
  21 49 1 3.00000000E-01 10
  21 50 1 3.00000000E-01 10
  22 1 1 3.00000000E-01 10
  22 2 1 3.00000000E-01 10
  22 3 1 3.00000000E-01 10
  22 4 1 3.00000000E-01 10
  22 5 1 3.00000000E-01 10
  22 6 1 3.00000000E-01 10
  22 7 1 3.00000000E-01 10
  22 8 1 3.00000000E-01 10
  22 9 1 3.00000000E-01 10
  22 10 1 3.00000000E-01 10
  22 11 1 3.00000000E-01 10
  22 12 1 3.00000000E-01 10
  22 13 1 3.00000000E-01 10
  22 14 1 3.00000000E-01 10
  22 15 1 3.00000000E-01 10
  22 16 1 3.00000000E-01 10
  22 17 1 3.00000000E-01 10
  22 18 1 3.00000000E-01 10
  22 19 1 3.00000000E-01 10
  22 20 1 3.00000000E-01 10
  22 21 1 3.00000000E-01 10
  22 22 1 3.00000000E-01 10
  22 23 1 3.00000000E-01 10
  22 24 1 3.00000000E-01 10
  22 25 1 3.00000000E-01 10
  22 26 1 3.00000000E-01 10
  22 27 1 3.00000000E-01 10
  22 28 1 3.00000000E-01 10
  22 29 1 3.00000000E-01 10
  22 30 1 3.00000000E-01 10
  22 31 1 3.00000000E-01 10
  22 32 1 3.00000000E-01 10
  22 33 1 3.00000000E-01 10
  22 34 1 3.00000000E-01 10
  22 35 1 3.00000000E-01 10
  22 36 1 3.00000000E-01 10
  22 37 1 3.00000000E-01 10