# File generated by Flopy version 3.9.3 on 10/06/2025 at 14:09:06.
BEGIN options
  SAVE_FLOWS
  SAVE_SPECIFIC_DISCHARGE
  SAVE_SATURATION
END options

BEGIN griddata
  icelltype
    CONSTANT  0
  k  LAYERED
    INTERNAL  FACTOR  1.0
                  NAN              NAN              NAN              NAN              NAN              NAN              NAN              NAN              NAN              NAN              NAN              NAN              NAN              NAN              NAN              NAN              NAN              NAN              NAN              NAN              NAN              NAN              NAN              NAN              NAN              NAN              NAN              NAN              NAN              NAN              NAN              NAN              NAN              NAN              NAN              NAN              NAN              NAN              NAN              NAN              NAN              NAN              NAN              NAN              NAN              NAN              NAN              NAN              NAN              NAN              NAN              NAN              NAN              NAN              NAN              NAN              NAN              NAN              NAN              NAN              NAN              NAN              NAN              NAN              NAN              NAN              NAN              NAN              NAN              NAN              NAN              NAN              NAN              NAN              NAN              NAN              NAN              NAN              NAN              NAN              NAN              NAN              NAN              NAN              NAN              NAN              NAN              NAN              NAN              NAN              NAN              NAN              NAN              NAN              NAN              NAN              NAN              NAN              NAN              NAN
                  NAN              NAN              NAN              NAN              NAN              NAN              NAN              NAN              NAN              NAN              NAN              NAN              NAN              NAN              NAN              NAN              NAN              NAN              NAN              NAN              NAN              NAN              NAN              NAN              NAN              NAN              NAN              NAN              NAN              NAN              NAN              NAN              NAN              NAN              NAN              NAN              NAN              NAN              NAN              NAN              NAN              NAN              NAN              NAN              NAN              NAN              NAN              NAN              NAN              NAN              NAN              NAN              NAN              NAN              NAN              NAN              NAN              NAN              NAN              NAN              NAN              NAN              NAN              NAN              NAN              NAN              NAN              NAN              NAN              NAN              NAN              NAN              NAN              NAN              NAN              NAN              NAN              NAN              NAN              NAN              NAN              NAN              NAN              NAN              NAN              NAN              NAN              NAN              NAN              NAN              NAN              NAN              NAN              NAN              NAN              NAN              NAN              NAN              NAN              NAN
                  NAN              NAN              NAN              NAN              NAN              NAN              NAN              NAN              NAN              NAN              NAN              NAN              NAN              NAN              NAN              NAN              NAN              NAN              NAN              NAN              NAN              NAN              NAN              NAN              NAN              NAN              NAN              NAN              NAN              NAN              NAN              NAN              NAN              NAN              NAN              NAN              NAN              NAN              NAN              NAN              NAN              NAN              NAN              NAN              NAN              NAN              NAN              NAN              NAN              NAN              NAN              NAN              NAN              NAN              NAN              NAN              NAN              NAN              NAN              NAN              NAN              NAN              NAN              NAN              NAN              NAN              NAN              NAN              NAN              NAN              NAN              NAN              NAN              NAN              NAN              NAN              NAN              NAN              NAN              NAN              NAN              NAN              NAN              NAN              NAN              NAN              NAN              NAN              NAN              NAN              NAN              NAN              NAN              NAN              NAN              NAN              NAN              NAN              NAN              NAN
                  NAN              NAN              NAN              NAN              NAN              NAN              NAN              NAN              NAN              NAN              NAN              NAN              NAN              NAN              NAN              NAN              NAN              NAN              NAN              NAN              NAN              NAN              NAN              NAN              NAN              NAN              NAN              NAN              NAN              NAN              NAN              NAN              NAN              NAN              NAN              NAN              NAN              NAN              NAN              NAN              NAN              NAN              NAN              NAN              NAN              NAN              NAN              NAN              NAN              NAN              NAN              NAN              NAN              NAN              NAN              NAN              NAN              NAN              NAN              NAN              NAN              NAN              NAN              NAN              NAN              NAN              NAN              NAN              NAN              NAN              NAN              NAN              NAN              NAN              NAN              NAN              NAN              NAN              NAN              NAN              NAN              NAN              NAN              NAN              NAN              NAN              NAN              NAN              NAN              NAN              NAN              NAN              NAN              NAN              NAN              NAN              NAN              NAN              NAN              NAN
                  NAN              NAN              NAN              NAN              NAN              NAN              NAN              NAN              NAN              NAN              NAN              NAN              NAN              NAN              NAN              NAN              NAN              NAN              NAN              NAN              NAN              NAN              NAN              NAN              NAN              NAN              NAN              NAN              NAN              NAN              NAN              NAN              NAN              NAN              NAN              NAN              NAN              NAN              NAN              NAN              NAN              NAN              NAN              NAN              NAN              NAN              NAN              NAN              NAN              NAN              NAN              NAN              NAN              NAN              NAN              NAN              NAN              NAN              NAN              NAN              NAN              NAN              NAN              NAN              NAN              NAN              NAN              NAN              NAN              NAN              NAN              NAN              NAN              NAN              NAN              NAN              NAN              NAN              NAN              NAN              NAN              NAN              NAN              NAN              NAN              NAN              NAN              NAN              NAN              NAN              NAN              NAN              NAN              NAN              NAN              NAN              NAN              NAN              NAN              NAN
                  NAN              NAN              NAN              NAN              NAN              NAN              NAN              NAN              NAN              NAN              NAN              NAN              NAN              NAN              NAN              NAN              NAN              NAN              NAN              NAN              NAN              NAN              NAN              NAN              NAN              NAN              NAN              NAN              NAN              NAN              NAN              NAN              NAN              NAN              NAN              NAN              NAN              NAN              NAN              NAN              NAN              NAN              NAN              NAN              NAN              NAN              NAN              NAN              NAN              NAN              NAN              NAN              NAN              NAN              NAN              NAN              NAN              NAN              NAN              NAN              NAN              NAN              NAN              NAN              NAN              NAN              NAN              NAN              NAN              NAN              NAN              NAN              NAN              NAN              NAN              NAN              NAN              NAN              NAN              NAN              NAN              NAN              NAN              NAN              NAN              NAN              NAN              NAN              NAN              NAN              NAN              NAN              NAN              NAN              NAN              NAN              NAN              NAN              NAN              NAN
                  NAN              NAN              NAN              NAN              NAN              NAN              NAN              NAN              NAN              NAN              NAN              NAN              NAN              NAN              NAN              NAN              NAN              NAN              NAN              NAN              NAN              NAN              NAN              NAN              NAN              NAN              NAN              NAN              NAN              NAN              NAN              NAN              NAN              NAN              NAN              NAN              NAN              NAN              NAN              NAN              NAN              NAN              NAN              NAN              NAN              NAN              NAN              NAN              NAN              NAN              NAN              NAN              NAN              NAN              NAN              NAN              NAN              NAN              NAN              NAN              NAN              NAN              NAN              NAN              NAN              NAN              NAN              NAN              NAN              NAN              NAN              NAN              NAN              NAN              NAN              NAN              NAN              NAN              NAN              NAN              NAN              NAN              NAN              NAN              NAN              NAN              NAN              NAN              NAN              NAN              NAN              NAN              NAN              NAN              NAN              NAN              NAN              NAN              NAN              NAN
                  NAN              NAN              NAN              NAN              NAN              NAN              NAN              NAN              NAN              NAN              NAN              NAN              NAN              NAN              NAN              NAN              NAN              NAN              NAN              NAN              NAN              NAN              NAN              NAN              NAN              NAN              NAN              NAN              NAN              NAN              NAN              NAN              NAN              NAN              NAN              NAN              NAN              NAN              NAN              NAN              NAN              NAN              NAN              NAN              NAN              NAN              NAN              NAN              NAN              NAN              NAN              NAN              NAN              NAN              NAN              NAN              NAN              NAN              NAN              NAN              NAN              NAN              NAN              NAN              NAN              NAN              NAN              NAN              NAN              NAN              NAN              NAN              NAN              NAN              NAN              NAN              NAN              NAN              NAN              NAN              NAN              NAN              NAN              NAN              NAN              NAN              NAN              NAN              NAN              NAN              NAN              NAN              NAN              NAN              NAN              NAN              NAN              NAN              NAN              NAN
                  NAN              NAN              NAN              NAN              NAN              NAN              NAN              NAN              NAN              NAN              NAN              NAN              NAN              NAN              NAN              NAN              NAN              NAN              NAN              NAN              NAN              NAN              NAN              NAN              NAN              NAN              NAN              NAN              NAN              NAN              NAN              NAN              NAN              NAN              NAN              NAN              NAN              NAN              NAN              NAN              NAN              NAN              NAN              NAN              NAN              NAN              NAN              NAN              NAN              NAN              NAN              NAN              NAN              NAN              NAN              NAN              NAN              NAN              NAN              NAN              NAN              NAN              NAN              NAN              NAN              NAN              NAN              NAN              NAN              NAN              NAN              NAN              NAN              NAN              NAN              NAN              NAN              NAN              NAN              NAN              NAN              NAN              NAN              NAN              NAN              NAN              NAN              NAN              NAN              NAN              NAN              NAN              NAN              NAN              NAN              NAN              NAN              NAN              NAN              NAN
                  NAN              NAN              NAN              NAN              NAN              NAN              NAN              NAN              NAN              NAN              NAN              NAN              NAN              NAN              NAN              NAN              NAN              NAN              NAN              NAN              NAN              NAN              NAN              NAN              NAN              NAN              NAN              NAN              NAN              NAN              NAN              NAN              NAN              NAN              NAN              NAN              NAN              NAN              NAN              NAN              NAN              NAN              NAN              NAN              NAN              NAN              NAN              NAN              NAN              NAN              NAN              NAN              NAN              NAN              NAN              NAN              NAN              NAN              NAN              NAN              NAN              NAN              NAN              NAN              NAN              NAN              NAN              NAN              NAN              NAN              NAN              NAN              NAN              NAN              NAN              NAN              NAN              NAN              NAN              NAN              NAN              NAN              NAN              NAN              NAN              NAN              NAN              NAN              NAN              NAN              NAN              NAN              NAN              NAN              NAN              NAN              NAN              NAN              NAN              NAN
                  NAN              NAN              NAN              NAN              NAN              NAN              NAN              NAN              NAN              NAN              NAN              NAN              NAN              NAN              NAN              NAN              NAN              NAN              NAN              NAN              NAN              NAN              NAN              NAN              NAN              NAN              NAN              NAN              NAN              NAN              NAN              NAN              NAN              NAN              NAN              NAN              NAN              NAN              NAN              NAN              NAN              NAN              NAN              NAN              NAN              NAN              NAN              NAN              NAN              NAN              NAN              NAN              NAN              NAN              NAN              NAN              NAN              NAN              NAN              NAN              NAN              NAN              NAN              NAN              NAN              NAN              NAN              NAN              NAN              NAN              NAN              NAN              NAN              NAN              NAN              NAN              NAN              NAN              NAN              NAN              NAN              NAN              NAN              NAN              NAN              NAN              NAN              NAN              NAN              NAN              NAN              NAN              NAN              NAN              NAN              NAN              NAN              NAN              NAN              NAN
                  NAN              NAN              NAN              NAN              NAN              NAN              NAN              NAN              NAN              NAN              NAN              NAN              NAN              NAN              NAN              NAN              NAN              NAN              NAN              NAN              NAN              NAN              NAN              NAN              NAN              NAN              NAN              NAN              NAN              NAN              NAN              NAN              NAN              NAN              NAN              NAN              NAN              NAN              NAN              NAN              NAN              NAN              NAN              NAN              NAN              NAN              NAN              NAN              NAN              NAN              NAN              NAN              NAN              NAN              NAN              NAN              NAN              NAN              NAN              NAN              NAN              NAN              NAN              NAN              NAN              NAN              NAN              NAN              NAN              NAN              NAN              NAN              NAN              NAN              NAN              NAN              NAN              NAN              NAN              NAN              NAN              NAN              NAN              NAN              NAN              NAN              NAN              NAN              NAN              NAN              NAN              NAN              NAN              NAN              NAN              NAN              NAN              NAN              NAN              NAN
                  NAN              NAN              NAN              NAN              NAN              NAN              NAN              NAN              NAN              NAN              NAN              NAN              NAN              NAN              NAN              NAN              NAN              NAN              NAN              NAN              NAN              NAN              NAN              NAN              NAN              NAN              NAN              NAN              NAN              NAN              NAN              NAN              NAN              NAN              NAN              NAN              NAN              NAN              NAN              NAN              NAN              NAN              NAN              NAN              NAN              NAN              NAN              NAN              NAN              NAN              NAN              NAN              NAN              NAN              NAN              NAN              NAN              NAN              NAN              NAN              NAN              NAN              NAN              NAN              NAN              NAN              NAN              NAN              NAN              NAN              NAN              NAN              NAN              NAN              NAN              NAN              NAN              NAN              NAN              NAN              NAN              NAN              NAN              NAN              NAN              NAN              NAN              NAN              NAN              NAN              NAN              NAN              NAN              NAN              NAN              NAN              NAN              NAN              NAN              NAN
                  NAN              NAN              NAN              NAN              NAN              NAN              NAN              NAN              NAN              NAN              NAN              NAN              NAN              NAN              NAN              NAN              NAN              NAN              NAN              NAN              NAN              NAN              NAN              NAN              NAN              NAN              NAN              NAN              NAN              NAN              NAN              NAN              NAN              NAN              NAN              NAN              NAN              NAN              NAN              NAN              NAN              NAN              NAN              NAN              NAN              NAN              NAN              NAN              NAN              NAN              NAN              NAN              NAN              NAN              NAN              NAN              NAN              NAN              NAN              NAN              NAN              NAN              NAN              NAN              NAN              NAN              NAN              NAN              NAN              NAN              NAN              NAN              NAN              NAN              NAN              NAN              NAN              NAN              NAN              NAN              NAN              NAN              NAN              NAN              NAN              NAN              NAN              NAN              NAN              NAN              NAN              NAN              NAN              NAN              NAN              NAN              NAN              NAN              NAN              NAN
                  NAN              NAN              NAN              NAN              NAN              NAN              NAN              NAN              NAN              NAN              NAN              NAN              NAN              NAN              NAN              NAN              NAN              NAN              NAN              NAN              NAN              NAN              NAN              NAN              NAN              NAN              NAN              NAN              NAN              NAN              NAN              NAN              NAN              NAN              NAN              NAN              NAN              NAN              NAN              NAN              NAN              NAN              NAN              NAN              NAN              NAN              NAN              NAN              NAN              NAN              NAN              NAN              NAN              NAN              NAN              NAN              NAN              NAN              NAN              NAN              NAN              NAN              NAN              NAN              NAN              NAN              NAN              NAN              NAN              NAN              NAN              NAN              NAN              NAN              NAN              NAN              NAN              NAN              NAN              NAN              NAN              NAN              NAN              NAN              NAN              NAN              NAN              NAN              NAN              NAN              NAN              NAN              NAN              NAN              NAN              NAN              NAN              NAN              NAN              NAN
                  NAN              NAN              NAN              NAN              NAN              NAN              NAN              NAN              NAN              NAN              NAN              NAN              NAN              NAN              NAN              NAN              NAN              NAN              NAN              NAN              NAN              NAN              NAN              NAN              NAN              NAN              NAN              NAN              NAN              NAN              NAN              NAN              NAN              NAN              NAN              NAN              NAN              NAN              NAN              NAN              NAN              NAN              NAN              NAN              NAN              NAN              NAN              NAN              NAN              NAN              NAN              NAN              NAN              NAN              NAN              NAN              NAN              NAN              NAN              NAN              NAN              NAN              NAN              NAN              NAN              NAN              NAN              NAN              NAN              NAN              NAN              NAN              NAN              NAN              NAN              NAN              NAN              NAN              NAN              NAN              NAN              NAN              NAN              NAN              NAN              NAN              NAN              NAN              NAN              NAN              NAN              NAN              NAN              NAN              NAN              NAN              NAN              NAN              NAN              NAN
                  NAN              NAN              NAN              NAN              NAN              NAN              NAN              NAN              NAN              NAN              NAN              NAN              NAN              NAN              NAN              NAN              NAN              NAN              NAN              NAN              NAN              NAN              NAN              NAN              NAN              NAN              NAN              NAN              NAN              NAN              NAN              NAN              NAN              NAN              NAN              NAN              NAN              NAN              NAN              NAN              NAN              NAN              NAN              NAN              NAN              NAN              NAN              NAN              NAN              NAN              NAN              NAN              NAN              NAN              NAN              NAN              NAN              NAN              NAN              NAN              NAN              NAN              NAN              NAN              NAN              NAN              NAN              NAN              NAN              NAN              NAN              NAN              NAN              NAN              NAN              NAN              NAN              NAN              NAN              NAN              NAN              NAN              NAN              NAN              NAN              NAN              NAN              NAN              NAN              NAN              NAN              NAN              NAN              NAN              NAN              NAN              NAN              NAN              NAN              NAN