# File generated by Flopy version 3.9.2 on 06/16/2025 at 14:39:39.
BEGIN options
  COMPLEXITY  simple
END options

