# File generated by Flopy version 3.9.2 on 06/16/2025 at 14:39:39.
BEGIN options
  DIGITS  5
  PRINT_INPUT
END options

BEGIN continuous  FILEOUT  head_obs_ref.csv
  h1  HEAD  4 14 26
  h2  HEAD  4 26 51
  h3  HEAD  4 46 81
  h4  HEAD  4 34 111
  h5  HEAD  4 64 131
END continuous  FILEOUT  head_obs_ref.csv

