# File generated by Flopy version 3.9.2 on 06/23/2025 at 11:51:03.
BEGIN options
END options

BEGIN griddata
  strt
    CONSTANT       1.00000000
END griddata

