# File generated by Flopy version 3.9.3 on 10/06/2025 at 14:11:39.
BEGIN options
  SAVE_FLOWS
  SAVE_SPECIFIC_DISCHARGE
  SAVE_SATURATION
END options

BEGIN griddata
  icelltype
    CONSTANT  0
  k  LAYERED
    INTERNAL  FACTOR  1.0
      8.32609353E-05  2.71230057E-04  4.24658011E-04  1.76282542E-04  5.06364150E-05  8.51646883E-05  9.58346896E-05  1.21770215E-04  3.01430017E-04  4.95981156E-04  3.15071284E-04  9.97122223E-05  6.02804310E-05  8.86769461E-05  4.82514865E-04  6.20076023E-04  2.08311585E-04  1.03487289E-04  4.77128394E-09  3.98573563E-09  1.33646451E-05  4.49863910E-04  5.73240807E-04  6.93446533E-04       0.00129933
      1.44450787E-04  4.17324564E-04  4.96956819E-04  1.91454577E-04  7.48087124E-05  1.53312390E-04  1.36232331E-04  1.52701747E-04  3.02765138E-04  5.45538688E-04  4.09129879E-04  2.20245357E-04  1.67392963E-04  2.49250242E-04       0.00123266       0.00103624  1.99685400E-04  1.74803702E-04  7.65588051E-08  1.16527567E-04  5.49129528E-04  3.32220535E-04  2.33076627E-04  3.97862842E-04  9.86264710E-04
      2.31615460E-04  6.19503471E-04  6.75846878E-04  2.81956850E-04  1.18297501E-04  2.33161943E-04  1.77126301E-04  1.47109807E-04  2.97459067E-04  5.24473663E-04  4.44001016E-04  3.64919939E-04  3.77153525E-04  6.62424339E-04       0.00268471       0.00142178  1.69500248E-04  1.76887327E-04  4.06102965E-04  5.71391390E-04  4.59521420E-04  1.72354346E-04  1.12077139E-04  2.53304313E-04  6.24695883E-04
      1.96592102E-04  7.33922165E-04  8.10121944E-04  4.07066825E-04  1.87315244E-04  3.03267325E-04  2.21648771E-04  2.01981320E-04  2.88384291E-04  3.63859081E-04  3.59241381E-04  4.67103474E-04  6.31622555E-04       0.00130656       0.00344856       0.00151809  1.85904661E-04  2.06399189E-04  5.03362891E-04  7.23770377E-04  3.66617884E-04  8.26367513E-05  6.72438371E-05  1.39517370E-04  4.73514346E-04
      1.14669471E-04  6.18175951E-04  8.41897880E-04  5.01533957E-04  2.87823751E-04  3.50707874E-04  3.19587226E-04  3.78089255E-04  4.26694105E-04  2.96266479E-04  2.03172706E-04  3.19487382E-04  6.08883041E-04       0.00149675       0.00291642       0.00122819  2.05123090E-04  2.72491447E-04  8.42687514E-04       0.00132723  4.20752685E-04  8.31763942E-05  4.40365524E-05  6.92820178E-05  3.40840455E-04
      7.88273443E-05  3.80042320E-04  6.95968808E-04  6.05450704E-04  2.64773937E-04  1.75108689E-04  3.24524950E-04  5.42113908E-04  6.00252535E-04  3.04458969E-04  1.55230626E-04  2.06915285E-04  8.11568577E-06  9.65603888E-09       0.00125608  9.94594909E-04  3.17617180E-04  4.04285513E-04       0.00157550       0.00240454  5.87265237E-04  1.39253894E-04  3.78447166E-05  3.81526932E-05  1.78256797E-04
      5.37178892E-05  2.63605894E-04  7.97053187E-04       0.00114008  2.47471905E-04  1.24288390E-04  2.98593309E-04  4.78016864E-04  6.19991851E-04  3.50856033E-04  1.66515168E-04  2.62476653E-04  1.01258125E-05  3.42464159E-09  3.91071146E-05       0.00158202  4.63770565E-04  5.31239761E-04       0.00214614       0.00311607       0.00101067  3.24547841E-04  6.68608877E-05  4.48069876E-05  1.31003046E-04
      3.42528927E-05  2.02577749E-04       0.00128198       0.00133393  2.21767313E-04  1.17883656E-04  2.83806950E-04  3.90617715E-04  4.43876104E-04  3.17182467E-04  2.49220939E-04  4.80317247E-04  4.92612707E-04  2.41677263E-04       0.00404346       0.00270509  5.30503138E-04  4.02288451E-04       0.00160931       0.00338208       0.00196739  7.75366357E-04  1.96666766E-04  1.11592517E-04  1.61825778E-04
      3.02126052E-05  1.68158526E-04       0.00150375       0.00110684  1.65997875E-04  1.34627959E-04  3.44198002E-04  3.58108280E-04  5.07206906E-04  4.36037831E-04  4.82508920E-04  7.00787697E-04  4.99862801E-04  8.91535592E-04       0.00378339       0.00256275  6.20006297E-04  2.49338476E-04  8.22953234E-04       0.00239795       0.00297004       0.00124597  5.77860579E-04  3.75998452E-04  2.95101881E-04
      2.29375042E-05  8.32192459E-05  9.37044745E-04  8.20646838E-04  1.36690067E-04  1.41703636E-04  3.48048720E-04  3.83464737E-04  6.15680628E-04  5.60052765E-04  6.86446456E-04  5.17882317E-04  3.94915797E-04  5.91250849E-04       0.00272499       0.00159282  3.83797222E-04  1.00280027E-04  2.99050470E-04       0.00113226       0.00213720  8.12221187E-04  6.97899115E-04  7.88193340E-04  4.22162065E-04
      1.55072093E-05  5.45003833E-05  4.55279374E-04  4.24641953E-04  1.23605036E-04  1.93831797E-04  2.99821370E-04  2.93607000E-04  6.21520081E-04  5.59182648E-04  5.34648038E-04  2.57289414E-04  2.16382744E-04  3.62977472E-04       0.00136760  7.34084540E-04  2.08562918E-04  4.69889249E-05  9.89204572E-05  4.32038171E-04       0.00129255  5.41619780E-04  5.25089907E-04  9.14841670E-04  6.94144456E-04
      1.46331930E-05  4.73289672E-05  2.90510491E-04  2.62942333E-04  1.00348550E-04  2.02010586E-04  2.55014750E-04  2.67749612E-04  5.72142547E-04  4.28782930E-04  3.14248674E-04  1.34455922E-04  1.25245497E-04  2.13891707E-04  6.16834931E-04  3.14380815E-04  9.31552409E-05  2.90158279E-05  6.23735363E-05  1.96896855E-04  6.81136809E-04  3.38682721E-04  2.76353860E-04  4.53136452E-04  9.29388722E-04
      1.46370155E-05  4.78748061E-05  2.77396328E-04  2.24135501E-04  9.60205714E-05  1.51136095E-04  2.54153433E-04  4.07654423E-04  5.13846049E-04  2.15699357E-04  1.00754777E-04  5.94696127E-05  5.14563351E-05  1.02580879E-04  2.00465334E-04  1.19607114E-04  4.66621546E-05  2.39812047E-05  5.38087150E-05  1.50230232E-04  3.70748979E-04  2.15270917E-04  9.15160280E-05  1.86252131E-04  6.54480465E-04
      2.13103686E-05  6.05733877E-05  2.26334232E-04  2.03685453E-04  9.06896744E-05  1.09886220E-04  1.79348794E-04  3.47516801E-04  3.79126004E-04  1.29721225E-04  4.31026823E-05  2.85871097E-05  4.18343191E-05  7.52692829E-05  8.65793775E-05  4.74837923E-05  3.44667480E-05  2.04763622E-05  3.50540268E-05  1.16656549E-04  2.34368975E-04  1.35020614E-04  3.32571317E-05  8.46551186E-05  3.58444673E-04
      4.13788492E-05  7.49951690E-05  2.03247301E-04  1.57485308E-04  8.02925312E-05  9.31860835E-05  1.30497775E-04  2.37508634E-04  3.13407459E-04  1.04075014E-04  2.98739331E-05  2.32308673E-05  4.79118582E-05  8.03465369E-05  7.94745663E-05  3.54198364E-05  4.00262730E-05  2.42841972E-05  2.82612321E-05  1.58660106E-04  2.55881580E-04  1.27816563E-04  2.74046749E-05  6.44484400E-05  2.44340431E-04
      7.48317805E-05  1.32587839E-04  1.86075014E-04  1.32929363E-04  7.63963091E-05  9.65084048E-05  1.59947870E-04  3.48327940E-04  3.99972535E-04  1.39182598E-04  3.60294993E-05  2.58824281E-05  4.30618550E-05  7.13328168E-05  1.23853483E-04  4.97963676E-05  5.09859841E-05  3.34192804E-05  2.30788249E-05  1.94396696E-04  3.38937614E-04  1.96717573E-04  6.13469026E-05  7.23077368E-05  1.52716788E-07
      1.35353325E-04  2.53594231E-04  2.08282760E-04  1.01446689E-04  1.07535525E-04  1.51621534E-04  3.15806549E-04  6.00414307E-04  5.20509546E-04  1.89568976E-04  7.33516389E-05  3.78943191E-05  3.37184442E-05  5.30262111E-05  1.24787345E-04  7.03684578E-05  8.87090680E-05  5.49174189E-05  2.65724699E-05  2.19966298E-04  5.16538666E-04  2.83023120E-04  1.61208266E-04  1.36628460E-04  4.58025290E-09
      1.83324865E-04  4.45009781E-04  2.12208137E-04  8.61384280E-05  1.21077038E-04  3.94865401E-04  7.35259486E-04  8.64143099E-04  6.44109659E-04  2.37223447E-04  1.80298290E-04  7.93850511E-05  3.13260867E-05  3.84973356E-05  1.09756849E-04  9.75828253E-05  1.83691220E-04  9.34364696E-05  5.48127978E-05  1.94172807E-04  5.26031178E-04  3.15337165E-04  2.48911380E-04  2.16161926E-04  1.23139058E-08
      3.29190415E-04  5.66131842E-04  1.43839752E-04  4.95686258E-05  1.03033901E-04  8.40636551E-04       0.00117990  9.47548918E-04  5.66516002E-04  1.95014407E-04  2.55834773E-04  1.67499583E-04  4.70665688E-05  4.91322295E-05  1.01319292E-04  1.37093839E-04  2.79780398E-04  7.34350460E-06  3.62460965E-07  1.78112033E-04  4.05446257E-04  5.47529305E-04  5.58793676E-04  3.27115224E-04  7.63381900E-07
      4.36723478E-04  4.80784045E-04  6.86215597E-05  2.01765236E-05  3.99841515E-05  7.68783848E-04  9.22080196E-04  5.72193387E-04  4.07460167E-04  1.35620254E-04  1.66298227E-04  1.58439191E-04  8.51370680E-05  9.19442341E-05  1.31160248E-04  1.35671819E-04  3.56883494E-04  2.61509577E-06  6.93620171E-08  1.20568691E-04  3.79190667E-04  8.56141310E-04       0.00110887  2.47760133E-04  1.03088604E-04
      5.26263273E-04  3.74926625E-04  5.27195859E-05  1.26655159E-05  2.25601786E-05  3.45119223E-04  5.83354449E-04  3.48601875E-04  2.42452728E-04  1.09057696E-04  9.84600652E-05  1.32827221E-04  1.27397305E-04  1.72871111E-04  1.69559106E-04  1.06410196E-04  2.73196492E-04  2.61342086E-05  2.63485773E-08  1.15848028E-05  3.95794217E-04  8.14529829E-04       0.00105038  2.86135045E-04  8.85753847E-05
      5.05741893E-04  2.45723036E-04  5.80107079E-05  1.73445568E-05  2.60786337E-05  1.41138680E-04  2.92961762E-04  2.36625802E-04  1.33251314E-04  1.13140851E-04  9.30142163E-05  1.38076434E-04  1.59048278E-04  2.91796818E-04  2.21254968E-04  1.02362237E-04  2.67465020E-04  1.06515241E-04  1.34936752E-08  2.54330574E-06  3.40670627E-04  6.77666290E-04  9.20109470E-04  3.48310933E-04  1.28626874E-04
      3.94693125E-04  2.29263461E-04  7.92197847E-05  2.82783967E-05  3.22940257E-05  6.18966145E-05  1.21383948E-04  1.61404341E-04  1.10923609E-04  1.45507671E-04  1.27885780E-04  1.21492144E-04  1.78415415E-04  4.95817233E-04  2.90220934E-04  1.47467330E-04  3.14818015E-04  8.32825146E-05  8.47537589E-09  1.16416722E-05  3.47570562E-04  8.11491475E-04       0.00133543  7.16278293E-04  1.71205073E-04
      3.58655216E-04  4.03808104E-04  1.47935676E-04  8.32646289E-05  5.45285621E-05  4.69994301E-05  9.25161570E-05  1.31353765E-04  1.44303636E-04  2.09468441E-04  1.99450477E-04  1.02732579E-04  2.36364342E-04  7.76374949E-04  4.32278596E-04  2.17652930E-04  2.95866830E-04  9.49890336E-04  2.07588024E-04  3.49447094E-04  4.02026669E-04  9.47076524E-04       0.00185078       0.00118666  1.91316906E-04
      2.58671573E-04  5.56179840E-04  4.42109625E-04  3.38889597E-04  1.18995843E-04  7.10099205E-05  1.43349566E-04  1.43142635E-04  1.99848335E-04  2.67951087E-04  2.69962244E-04  6.69864067E-05  2.24733553E-04  7.93322487E-04  7.90283479E-04  2.88223866E-04  2.15634986E-04  6.76226761E-04  6.84295233E-04  3.03298129E-04  4.70507378E-04       0.00139730       0.00220347       0.00113817  1.75655270E-04
    INTERNAL  FACTOR  1.0
      7.48763759E-05  2.40885570E-04  4.25562931E-04  1.57797485E-04  4.71146080E-05  8.19534244E-05  9.62446574E-05  1.22190809E-04  3.05810904E-04  4.94862004E-04  2.99663834E-04  9.86207640E-05  5.85461353E-05  8.38794564E-05  4.64376905E-04  6.23972157E-04  6.79703818E-08  7.51920591E-09  4.72942550E-09  4.18667677E-09  1.20350114E-08  4.52762615E-04  5.67331673E-04  6.67760724E-04       0.00119103
      7.56787934E-05  2.58930989E-04  3.41639996E-04  1.73365777E-04  7.08767883E-05  1.44511949E-04  1.36171456E-04  1.58851254E-04  3.07867556E-04  5.47987925E-04  4.01741764E-04  2.19267420E-04  1.66196575E-04  2.36938939E-04       0.00116898  9.33857234E-04  6.83081997E-08  9.15761292E-09  4.32023116E-09  3.61620997E-09  1.53846905E-04  3.03661399E-04  2.32346654E-04  3.59904216E-04  8.96483010E-04
      5.15365293E-05  2.92249399E-04  4.56086990E-04  2.59245590E-04  1.10630083E-04  2.12650348E-04  1.73123997E-04  1.50850994E-04  3.02769541E-04  5.21307016E-04  4.53161475E-04  3.70098578E-04  3.78554739E-04  6.27179824E-04       0.00256038       0.00117044  7.69369993E-05  4.51649161E-05  1.54477203E-04  2.55458693E-04  4.20215416E-04  1.63718871E-04  1.07608056E-04  2.36007051E-04  5.77659521E-04
      1.38435469E-08  3.40474782E-08  5.53159444E-04  3.77315563E-04  1.74304513E-04  2.80467260E-04  2.13126537E-04  2.02118215E-04  3.00840617E-04  3.63605341E-04  3.60611260E-04  4.74937354E-04  2.90264086E-04  4.12492639E-04       0.00192755  7.81725930E-04  8.87298787E-05  1.30054461E-04  5.06008245E-04  7.28137444E-04  3.33524536E-04  7.90441466E-05  6.59994421E-05  1.34008085E-04  4.04157887E-04
      5.61343112E-05  2.83368479E-04  5.70849354E-04  4.73425136E-04  2.67295660E-04  3.30773772E-04  3.13218612E-04  3.91042362E-04  4.39735368E-04  2.82089965E-04  1.98907810E-04  3.06332518E-04  6.91193620E-09  3.00534221E-09  9.16105299E-04  4.85521672E-04  1.32363955E-04  2.64049837E-04  8.22851834E-04       0.00135012  3.69530142E-04  7.83373912E-05  4.39010379E-05  6.83551184E-05  2.88453926E-04
      3.90367177E-05  1.76434837E-04  4.90289967E-04  5.81166662E-04  3.19256050E-04  1.72839291E-04  3.19630052E-04  5.69602585E-04  6.23213247E-04  2.95353287E-04  1.53488198E-04  2.03128455E-04  7.40047662E-09  2.45633917E-09  4.86390920E-09  3.68542205E-04  2.19387706E-04  4.01358944E-04       0.00143465       0.00242264  5.27353230E-04  1.35021417E-04  3.56693933E-05  3.71720337E-05  1.56463824E-04
      4.62757540E-05  2.24685084E-04  7.58826273E-04       0.00104269  2.28095792E-04  1.20379594E-04  2.83878799E-04  5.06873287E-04  6.57768696E-04  3.34226346E-04  1.67356098E-04  2.58177670E-04  1.36860807E-08  3.43230772E-09  5.84048865E-09  1.31796271E-08  3.19574308E-04  5.32593877E-04       0.00189883       0.00313614  9.70116900E-04  3.26788686E-04  6.34965815E-05  4.50134608E-05  1.12194949E-04
      3.32523031E-05  1.76399081E-04       0.00118423       0.00120203  2.03265705E-04  1.15560804E-04  2.79329475E-04  4.06406927E-04  4.73159964E-04  3.12946832E-04  2.47602064E-04  4.87120243E-04  3.30237938E-08  4.21247961E-09  1.14766472E-08       0.00127046  4.67438533E-04  3.91247965E-04       0.00146039       0.00329947       0.00193308  7.74523807E-04  1.93884939E-04  1.16118580E-04  1.53977939E-04
      2.92567751E-05  1.39045048E-04       0.00132477  9.61499726E-04  1.49276165E-04  1.27469396E-04  3.54803342E-04  3.79022759E-04  5.19234878E-04  4.32598101E-04  4.80403769E-04  7.10946363E-04  3.58454232E-04  4.45178847E-04       0.00274653       0.00246486  5.66503077E-04  2.47196978E-04  7.67222991E-04       0.00232349       0.00281817       0.00118270  5.90145616E-04  3.79160922E-04  2.84669933E-04
      2.27193905E-05  7.20128652E-05  8.20688453E-04  7.17482681E-04  1.24686631E-04  1.31960736E-04  3.50955089E-04  3.95225220E-04  6.22700909E-04  5.57221923E-04  6.89369303E-04  5.22018188E-04  4.01798760E-04  5.43796227E-04       0.00274086       0.00155114  3.36804593E-04  1.00592062E-04  2.76739730E-04       0.00121124       0.00247433  8.09736399E-04  6.93989738E-04  7.60117770E-04  4.08410940E-04
      1.54870745E-05  4.78456124E-05  4.06460773E-04  3.98844647E-04  1.17024079E-04  1.76620309E-04  2.95377327E-04  2.92872190E-04  6.14125323E-04  5.61297687E-04  5.20774779E-04  2.61275899E-04  2.24156716E-04  3.43497005E-04       0.00140979  7.49577406E-04  1.87557285E-04  4.71145173E-05  9.45675457E-05  5.15307118E-04       0.00169421  5.33169664E-04  5.39220360E-04  8.78901900E-04  6.65705972E-04
      1.46781527E-05  3.96904506E-05  2.82574197E-04  2.56772098E-04  9.70358309E-05  1.78488732E-04  2.52066298E-04  2.64576430E-04  5.57444467E-04  4.37154411E-04  3.05767418E-04  1.35748121E-04  1.24602411E-04  2.06450083E-04  6.45612260E-04  3.21542046E-04  8.99740830E-05  2.99020906E-05  5.86636486E-05  1.82077491E-04  7.04471930E-04  3.23047380E-04  2.88304696E-04  4.52486615E-04  8.61273573E-04
      1.50103033E-05  3.95577237E-05  2.66297067E-04  2.20716415E-04  9.25830594E-05  1.37590781E-04  2.45052568E-04  4.02809610E-04  5.16892087E-04  2.13186019E-04  1.03899720E-04  6.13530042E-05  5.13922181E-05  1.05642305E-04  2.14317937E-04  1.26498132E-04  4.47896846E-05  2.43797596E-05  5.24953069E-05  1.45928488E-04  3.74658823E-04  1.84918366E-04  9.73731671E-05  1.78672995E-04  5.79151342E-04
      2.15042420E-05  5.34172111E-05  2.18995288E-04  1.98737920E-04  8.85400866E-05  1.06341506E-04  1.73642617E-04  3.40312152E-04  3.78363614E-04  1.24223044E-04  4.44347866E-05  2.93132429E-05  3.97081211E-05  7.85037530E-05  9.10329377E-05  4.80586804E-05  3.37747539E-05  2.05218431E-05  3.41377897E-05  1.13482693E-04  2.34575621E-04  1.11285553E-04  3.37849622E-05  7.47720395E-05  3.35376461E-04
      4.02791848E-05  6.91732113E-05  2.00303893E-04  1.47659962E-04  7.80289889E-05  9.38286110E-05  1.29163619E-04  2.24360575E-04  3.04281237E-04  1.00364022E-04  2.98501129E-05  2.38355574E-05  4.65260197E-05  8.24442073E-05  8.17769837E-05  3.48120972E-05  3.88585030E-05  2.35705681E-05  2.76629604E-05  1.49325500E-04  2.44605751E-04  1.16049512E-04  2.76952772E-05  5.67281883E-05  9.44246389E-05
      7.31861396E-05  1.29715392E-04  1.86257603E-04  1.28019094E-04  7.54975784E-05  9.72870750E-05  1.58366993E-04  3.36689773E-04  3.81435914E-04  1.32543638E-04  3.50801208E-05  2.65243907E-05  4.29172376E-05  7.00216953E-05  1.25507425E-04  4.91966224E-05  5.01600603E-05  3.23196884E-05  2.19920468E-05  1.57274782E-04  3.30301748E-04  1.91046456E-04  6.08265191E-05  3.70141874E-05  2.65378925E-09
      1.27580456E-04  2.44646252E-04  2.02705185E-04  1.05809588E-04  1.09357662E-04  1.52385620E-04  3.22643820E-04  5.65765307E-04  4.70846061E-04  1.83817790E-04  7.19808297E-05  3.79497769E-05  3.37708344E-05  4.96041481E-05  1.24901905E-04  7.13860309E-05  9.18199163E-05  4.40331460E-05  2.11196833E-05  1.65436107E-04  5.16174696E-04  2.76705428E-04  1.59835764E-04  2.01015521E-08  4.36725576E-09
      1.71460810E-04  4.21340205E-04  1.93643570E-04  9.05248015E-05  1.21734776E-04  3.79555259E-04  7.54189664E-04  8.28336134E-04  5.89950694E-04  2.31820350E-04  1.77059904E-04  7.83184116E-05  3.06996443E-05  3.63463540E-05  1.09006045E-04  1.00949708E-04  1.92975118E-04  6.49761344E-09  2.05269754E-08  1.68785692E-04  5.46159184E-04  3.18321116E-04  2.46505581E-04  1.44913530E-08  3.58169593E-09
      3.08026566E-04  5.44852709E-04  1.24838816E-04  5.21405880E-05  9.30880400E-05  7.81363991E-04  8.92181035E-04  8.47587569E-04  5.28598536E-04  1.85363733E-04  2.47166053E-04  1.59808559E-04  4.58222774E-05  4.57816297E-05  1.02129897E-04  1.41993077E-04  2.78193032E-04  6.36592809E-09  1.44163397E-08  1.25047393E-04  4.19454409E-04  5.49589687E-04  5.47067936E-04  2.56470867E-04  3.65518332E-09
      4.21942520E-04  4.59029945E-04  5.59388005E-05  2.13309586E-05  3.35420324E-05  6.82670673E-04  6.73897788E-04  4.33451875E-04  3.94634228E-04  1.28989344E-04  1.61846284E-04  1.55747707E-04  8.64846756E-05  8.80807708E-05  1.31665891E-04  1.39386236E-04  3.40930845E-04  1.20462063E-08  2.89618862E-08  1.07656548E-07  3.72099711E-04  8.08302055E-04       0.00103452  2.37949452E-04  2.96160934E-05
      5.21811732E-04  3.43955839E-04  4.38889334E-05  1.34637757E-05  2.03701611E-05  3.12431684E-04  4.19861896E-04  2.39957435E-04  2.47800133E-04  1.05365968E-04  9.69155538E-05  1.28912257E-04  1.26361171E-04  1.64904835E-04  1.72936880E-04  1.07697410E-04  2.51292662E-04  1.31620203E-08  2.61744866E-08  4.07561946E-08  3.90977329E-04  7.85143548E-04  9.84372092E-04  2.62626141E-04  8.60753416E-05
      5.01259741E-04  2.29816698E-04  5.35785091E-05  1.83398484E-05  2.67979672E-05  1.30116680E-04  2.20251089E-04  1.35270925E-04  1.36574416E-04  1.11440367E-04  9.07674060E-05  1.27262333E-04  1.49363574E-04  2.82473672E-04  2.18985892E-04  1.03016886E-04  2.10082194E-04  7.08503423E-09  1.29383138E-08  2.70681738E-08  3.41625880E-04  6.80626062E-04  8.90942662E-04  3.21368868E-04  1.24043388E-04
      3.93422580E-04  2.26449452E-04  7.97391096E-05  2.91915347E-05  3.47296322E-05  6.11395868E-05  6.43116081E-05  9.10260814E-05  1.08999346E-04  1.42887616E-04  1.24231137E-04  1.10330528E-04  1.66876369E-04  4.81991006E-04  2.68622404E-04  1.46459120E-04  2.48278447E-04  5.19885830E-09  8.08840195E-09  1.63315555E-08  3.38054443E-04  7.99082867E-04       0.00130952  6.75105178E-04  1.60346926E-04
      3.41865182E-04  4.11197406E-04  1.53806085E-04  8.94292040E-05  5.66847857E-05  3.44329575E-05  2.43262552E-05  5.39385326E-05  1.37984137E-04  2.02857683E-04  1.90491936E-04  9.04793407E-05  2.02099002E-04  7.76809880E-04  4.10438916E-04  2.11797793E-04  2.90849037E-04  1.94247188E-08  7.39110213E-09  1.45139055E-04  3.92100547E-04  9.09424148E-04       0.00185282       0.00107371  1.70131713E-04
      2.34228342E-04  5.69383638E-04  4.69705525E-04  3.61099336E-04  1.10938932E-04  3.93834428E-05  3.43303826E-08  4.76394235E-05  1.21539017E-04  2.18988220E-04  2.07170867E-04  3.96873553E-05  1.67932946E-04  7.89187858E-04  7.82718034E-04  2.70588811E-04  2.14680064E-04  3.86336359E-04  5.17865976E-04  3.01648888E-04  4.60247887E-04       0.00132249       0.00218568       0.00101782  1.43632552E-04
    INTERNAL  FACTOR  1.0
      6.22142624E-09  6.99853796E-09  4.29686025E-09  1.15113852E-08  4.32015326E-05  7.77759450E-05  9.74018469E-05  1.25128879E-04  3.22482529E-04  4.92165595E-04  2.91396161E-04  1.00560153E-04  5.06522830E-05  4.72419283E-05  4.03776885E-04  2.23996693E-04  2.23826214E-08  7.60579110E-09  4.70585786E-09  4.55340272E-09  1.09194608E-08  2.47398310E-08  2.79137575E-04  4.64879107E-04  9.52326768E-04
      9.65605083E-09  9.86897010E-09  9.18672805E-09  1.09662855E-08  6.64197974E-05  1.33918241E-04  1.36426190E-04  1.68153275E-04  3.21525705E-04  5.56952333E-04  4.04927504E-04  2.15577371E-04  3.92835676E-05  3.04763049E-08  5.82177929E-04  8.10252042E-08  2.05789195E-08  9.46220804E-09  4.31430798E-09  3.85899460E-09  6.76707295E-09  1.13924148E-08  1.48180505E-04  3.46547740E-04  8.15381202E-04
      9.77428928E-09  1.23959792E-08  1.81857968E-08  3.41867345E-08  1.02024895E-04  1.93280116E-04  1.70891031E-04  1.58439024E-04  3.21223387E-04  5.17885738E-04  4.61558657E-04  3.41676990E-04  9.05940766E-09  4.71605640E-09  4.60912443E-09  2.24216016E-08  2.22451555E-08  2.39771922E-08  4.51979554E-09  4.36371093E-09  1.26078144E-08  7.28012294E-05  9.04396727E-05  2.24142631E-04  5.40536031E-04
      1.03984488E-08  1.83684656E-08  2.21361866E-08  5.28100572E-08  1.59866953E-04  2.56066170E-04  2.13538851E-04  2.06598884E-04  3.24282560E-04  3.64505948E-04  3.63561544E-04  3.61008378E-04  3.73308921E-09  2.96029331E-09  2.38771928E-09  6.98428366E-09  3.20740887E-08  5.52445982E-04  3.98971528E-04  5.72074062E-04  2.57656039E-04  7.56895426E-05  6.54896094E-05  1.28435629E-04  3.77336233E-04
      7.84567806E-09  1.73299606E-08  1.48073972E-08  5.01161308E-08       0.00609057       0.00117825  3.05937881E-04  4.06177128E-04  4.60241458E-04  2.81345398E-04  1.94507563E-04  2.14019996E-04  2.76408018E-09  2.81612935E-09  2.85576244E-09  7.96161027E-09  1.68677154E-08  6.45142590E-08  8.29374009E-04       0.00137355  3.65805589E-04  7.96759179E-05  4.38141230E-05  6.86515071E-05  2.76926212E-04
      7.48414363E-09  1.06925550E-08  6.75310939E-09  2.54334556E-08       0.00836197  6.01330148E-04  3.24000397E-04  6.05015306E-04  6.54826048E-04  2.98989893E-04  1.52389562E-04  5.35148210E-08  5.03559841E-09  2.45478418E-09  4.62372952E-09  5.99510089E-09  1.34389893E-08  2.90058180E-04       0.00139930       0.00246487  5.45833570E-04  1.41810765E-04  3.47664907E-05  3.71295837E-05  1.57725123E-04
      7.19427165E-09  6.28672420E-09  6.48669046E-09  6.06069684E-04  2.15787333E-04  1.17611762E-04  2.82452734E-04  5.52686798E-04  7.13244339E-04  3.37877357E-04  1.68647993E-04  2.12035416E-04  9.49313331E-09  3.47863642E-09  5.51405535E-09  7.16874116E-09  1.26357250E-08  4.03015660E-04       0.00183522       0.00317948       0.00100774  3.45863996E-04  6.48685551E-05  4.51516275E-05  1.14025234E-04
      1.15658584E-08  1.16546747E-08  5.79399981E-04       0.00106748  1.98252886E-04  1.14431324E-04  2.84555741E-04  4.35120679E-04  5.26762552E-04  3.18164289E-04  2.50479547E-04  4.95060880E-04  1.76267205E-08  4.18988051E-09  5.86135855E-09  6.29805528E-09  9.99542319E-09  2.90694095E-04       0.00143579       0.00321540       0.00193937  8.27739286E-04  2.03889112E-04  1.20883818E-04  1.56722372E-04
      1.47243314E-05  6.95497174E-05  6.44392887E-04  9.06308306E-04  1.49326367E-04  1.26167614E-04  3.70246751E-04  4.13025604E-04  5.63484605E-04  4.34450980E-04  4.76898074E-04  7.17147734E-04  2.15595760E-08  3.48467777E-09  3.29228924E-09  5.24247184E-09  2.31351319E-04  2.45353694E-04  7.58146488E-04       0.00246942       0.00247415       0.00119549  5.98066271E-04  3.80127147E-04  2.75772656E-04
      1.21043851E-05  4.12087336E-05  4.04508581E-04  6.98737179E-04  1.24031782E-04  1.27981240E-04  3.58315833E-04  4.12296860E-04  6.61638987E-04  5.54101042E-04  6.88069630E-04  5.24362408E-04  3.45491485E-08  4.65000317E-09  2.96487449E-09  7.06547395E-09  2.87381329E-04  1.00308988E-04  2.71506612E-04       0.00223911       0.00291084  8.52861284E-04  7.14894355E-04  7.39556207E-04  3.89133533E-04
      1.09935396E-05  3.64000513E-05  2.05719357E-04  3.87957570E-04  1.13288300E-04  1.69424490E-04  2.90129982E-04  2.92155533E-04  5.44897015E-04  3.51826229E-04  5.14703760E-04  2.63521545E-04  8.25882339E-05  1.72805388E-04  7.33276183E-04  5.18247830E-04  1.92500745E-04  4.81478796E-05  9.52204168E-05  7.57222371E-04       0.00411442  5.52983022E-04  5.76499950E-04  8.54432567E-04  6.32527018E-04
      1.49013717E-05  3.85134760E-05  2.79484876E-04  2.48675496E-04  9.36719649E-05  1.66759972E-04  2.46281305E-04  2.65267653E-04  3.19242080E-04  9.64264278E-08  1.76085537E-04  1.24013480E-04  8.23598823E-05  1.49249789E-04  5.44711134E-04  3.52591736E-04  9.25076076E-05  3.13999002E-05  5.99422130E-05  5.42328232E-04       0.00134570  3.31094537E-04  3.06261405E-04  4.40539990E-04  8.09880855E-04
      1.57982047E-05  3.98922127E-05  2.58173521E-04  2.21198783E-04  8.99676054E-05  1.29391564E-04  2.33413872E-04  3.97221004E-04  2.81806303E-04  2.71072882E-08  4.27961739E-05  6.29019370E-05  5.20984562E-05  1.09859242E-04  2.34500727E-04  1.36526815E-04  4.52675504E-05  2.51453981E-05  5.34506504E-05  1.81434588E-04  3.93335364E-04  1.85763865E-04  1.03445949E-04  1.76917105E-04  5.51755636E-04
      1.48883014E-05  5.41300277E-05  2.11411447E-04  1.98797235E-04  8.64448996E-05  1.03016131E-04  1.68703850E-04  3.41962689E-04  2.42870852E-04  2.44492336E-08  2.16851825E-08  3.02581899E-05  3.97572693E-05  8.28081594E-05  9.79398868E-05  5.03534242E-05  3.33850384E-05  2.06252897E-05  3.46731010E-05  1.18602718E-04  2.35967066E-04  1.08611957E-04  3.40589681E-05  6.64334955E-05  1.76923657E-04
      3.00720569E-05  6.89976107E-05  1.95054867E-04  1.47453297E-04  7.51753129E-05  9.47002238E-05  1.28887613E-04  1.99142595E-04  2.96449477E-04  5.24245093E-05  2.04928036E-05  2.53569949E-05  4.58608188E-05  8.55453334E-05  8.50510229E-05  3.53247967E-05  3.75342871E-05  2.25924468E-05  2.86004119E-05  1.56186796E-04  2.35899513E-04  1.15906544E-04  2.82347197E-05  9.21516645E-09  1.27660468E-09
      7.07888614E-05  1.25783661E-04  1.85434545E-04  1.30992880E-04  7.54463601E-05  9.78047451E-05  6.63572385E-05  1.97144225E-04  3.65787915E-04  1.06991592E-04  3.42917157E-05  2.76423781E-05  4.30467077E-05  7.07718347E-05  1.27500073E-04  4.98270877E-05  4.92850511E-05  1.82685854E-05  1.28834070E-05  1.59834795E-04  3.20720679E-04  1.90510821E-04  6.31922569E-05  5.20476438E-09  2.51144990E-09
      1.18691538E-04  2.33925480E-04  2.05149663E-04  1.12588440E-04  1.12057278E-04  1.42252992E-04  5.00165350E-08  9.06739068E-08  3.64916218E-04  1.70953765E-04  7.13698384E-05  3.85816888E-05  3.38159609E-05  4.85736920E-05  1.25369536E-04  6.59407170E-05  5.49266242E-05  4.10856467E-09  9.30069476E-09  1.34981818E-04  5.15641873E-04  2.76730025E-04  1.18320463E-04  5.29182688E-09  4.22654397E-09
      1.59950483E-04  3.99693982E-04  1.92645695E-04  9.64596603E-05  1.28320379E-04  3.81584357E-04  5.51187713E-08  4.35225009E-08  2.85552316E-04  1.82514491E-04  1.66600232E-04  8.06394067E-05  3.10411532E-05  3.60242512E-05  1.07594701E-04  7.55442590E-05  7.20956273E-05  3.33788182E-09  8.68455486E-09  5.67963375E-05  5.71640001E-04  3.26423092E-04  1.84881196E-04  5.17517729E-09  3.43879208E-09
      2.91290543E-04  5.17609440E-04  1.21656708E-04  5.54103655E-05  9.71250194E-05  7.78381342E-04  6.45835454E-08  3.22005855E-08  3.48700098E-04  1.78359363E-04  2.37381018E-04  1.64306980E-04  4.80654055E-05  4.57853692E-05  1.03588550E-04  1.53204247E-04  1.72786090E-08  4.85365227E-09  1.53541845E-08  4.55082308E-08  4.41194583E-04  5.49587110E-04  4.82905946E-04  8.02776323E-09  2.84541610E-09
      4.06487271E-04  4.39896241E-04  5.65973223E-05  2.27665840E-05  3.62725367E-05  6.70848077E-04  9.39700733E-08  4.01779086E-08  2.81678660E-04  1.25998802E-04  1.57160921E-04  1.57643018E-04  8.92727469E-05  8.36418764E-05  1.32795954E-04  1.46065996E-04  1.36018925E-08  8.66188927E-09  3.03749591E-08  3.72692134E-08  2.42702280E-04  7.65334566E-04  9.75216179E-04  8.88385117E-05  2.56529895E-09
      5.18192069E-04  3.38944135E-04  4.49635037E-05  1.48103123E-05  2.30669354E-05  3.11680051E-04  1.16115886E-07  4.90988944E-08  1.21433802E-07  1.03513507E-04  9.54638413E-05  1.24657769E-04  1.24663724E-04  1.57043302E-04  1.79715850E-04  1.10805692E-04  1.30589419E-08  9.30017475E-09  2.65254037E-08  3.32279048E-08  2.28364139E-07  7.88927200E-04  9.39445062E-04  2.59654359E-04  3.73765363E-05
      4.91565823E-04  2.27787501E-04  5.45043741E-05  1.97014138E-05  2.88602584E-05  9.05305881E-05  4.57905050E-08  3.76413342E-08  6.96275965E-08  1.09372777E-04  8.80774434E-05  1.14232406E-04  1.38157874E-04  2.74779609E-04  2.21564628E-04  1.99981586E-04  7.42563851E-09  5.23273906E-09  1.25423712E-08  2.13656206E-08  1.38311395E-07  6.99974763E-04  8.60868134E-04  3.10397652E-04  1.23266018E-04
      3.94948836E-04  2.33148189E-04  8.22526449E-05  3.13115175E-05  3.55756058E-05  8.54847082E-08  3.90315796E-08  3.19872479E-08  6.00947141E-08  1.40148004E-04  1.20001340E-04  9.65625609E-05  1.61213832E-04  4.66943276E-04  2.65310809E-04  1.82311360E-04  5.22479937E-09  3.94234915E-09  7.79639037E-09  1.20736920E-08  7.00777231E-08  7.97189313E-04       0.00127298  6.51007706E-04  1.56749575E-04