# File generated by Flopy version 3.9.1 on 06/24/2025 at 08:50:04.
BEGIN options
  BUDGET  FILEOUT  test.cbc
  HEAD  FILEOUT  test.hds
END options

BEGIN period  1
  SAVE  HEAD  LAST
  SAVE  BUDGET  LAST
  PRINT  BUDGET  ALL
END period  1

