# File generated by Flopy version 3.9.1 on 06/09/2025 at 13:00:12.
BEGIN options
  auxiliary  TEMPERATURE
  SAVE_FLOWS
END options

BEGIN dimensions
  MAXBOUND  1
END dimensions

BEGIN period  1
  11 13 13 1.50000000E-03 7
END period  1

