# File generated by Flopy version 3.9.1 on 06/24/2025 at 08:50:04.
BEGIN options
  auxiliary  TEMPERATURE
  SAVE_FLOWS
END options

BEGIN dimensions
  MAXBOUND  625
END dimensions

BEGIN period  1
  1 1 1 3.00000000E-01 10
  1 2 1 3.00000000E-01 10
  1 3 1 3.00000000E-01 10
  1 4 1 3.00000000E-01 10
  1 5 1 3.00000000E-01 10
  1 6 1 3.00000000E-01 10
  1 7 1 3.00000000E-01 10
  1 8 1 3.00000000E-01 10
  1 9 1 3.00000000E-01 10
  1 10 1 3.00000000E-01 10
  1 11 1 3.00000000E-01 10
  1 12 1 3.00000000E-01 10
  1 13 1 3.00000000E-01 10
  1 14 1 3.00000000E-01 10
  1 15 1 3.00000000E-01 10
  1 16 1 3.00000000E-01 10
  1 17 1 3.00000000E-01 10
  1 18 1 3.00000000E-01 10
  1 19 1 3.00000000E-01 10
  1 20 1 3.00000000E-01 10
  1 21 1 3.00000000E-01 10
  1 22 1 3.00000000E-01 10
  1 23 1 3.00000000E-01 10
  1 24 1 3.00000000E-01 10
  1 25 1 3.00000000E-01 10
  2 1 1 3.00000000E-01 10
  2 2 1 3.00000000E-01 10
  2 3 1 3.00000000E-01 10
  2 4 1 3.00000000E-01 10
  2 5 1 3.00000000E-01 10
  2 6 1 3.00000000E-01 10
  2 7 1 3.00000000E-01 10
  2 8 1 3.00000000E-01 10
  2 9 1 3.00000000E-01 10
  2 10 1 3.00000000E-01 10
  2 11 1 3.00000000E-01 10
  2 12 1 3.00000000E-01 10
  2 13 1 3.00000000E-01 10
  2 14 1 3.00000000E-01 10
  2 15 1 3.00000000E-01 10
  2 16 1 3.00000000E-01 10
  2 17 1 3.00000000E-01 10
  2 18 1 3.00000000E-01 10
  2 19 1 3.00000000E-01 10
  2 20 1 3.00000000E-01 10
  2 21 1 3.00000000E-01 10
  2 22 1 3.00000000E-01 10
  2 23 1 3.00000000E-01 10
  2 24 1 3.00000000E-01 10
  2 25 1 3.00000000E-01 10
  3 1 1 3.00000000E-01 10
  3 2 1 3.00000000E-01 10
  3 3 1 3.00000000E-01 10
  3 4 1 3.00000000E-01 10
  3 5 1 3.00000000E-01 10
  3 6 1 3.00000000E-01 10
  3 7 1 3.00000000E-01 10
  3 8 1 3.00000000E-01 10
  3 9 1 3.00000000E-01 10
  3 10 1 3.00000000E-01 10
  3 11 1 3.00000000E-01 10
  3 12 1 3.00000000E-01 10
  3 13 1 3.00000000E-01 10
  3 14 1 3.00000000E-01 10
  3 15 1 3.00000000E-01 10
  3 16 1 3.00000000E-01 10
  3 17 1 3.00000000E-01 10
  3 18 1 3.00000000E-01 10
  3 19 1 3.00000000E-01 10
  3 20 1 3.00000000E-01 10
  3 21 1 3.00000000E-01 10
  3 22 1 3.00000000E-01 10
  3 23 1 3.00000000E-01 10
  3 24 1 3.00000000E-01 10
  3 25 1 3.00000000E-01 10
  4 1 1 3.00000000E-01 10
  4 2 1 3.00000000E-01 10
  4 3 1 3.00000000E-01 10
  4 4 1 3.00000000E-01 10
  4 5 1 3.00000000E-01 10
  4 6 1 3.00000000E-01 10
  4 7 1 3.00000000E-01 10
  4 8 1 3.00000000E-01 10
  4 9 1 3.00000000E-01 10
  4 10 1 3.00000000E-01 10
  4 11 1 3.00000000E-01 10
  4 12 1 3.00000000E-01 10
  4 13 1 3.00000000E-01 10
  4 14 1 3.00000000E-01 10
  4 15 1 3.00000000E-01 10
  4 16 1 3.00000000E-01 10
  4 17 1 3.00000000E-01 10
  4 18 1 3.00000000E-01 10
  4 19 1 3.00000000E-01 10
  4 20 1 3.00000000E-01 10
  4 21 1 3.00000000E-01 10
  4 22 1 3.00000000E-01 10
  4 23 1 3.00000000E-01 10
  4 24 1 3.00000000E-01 10
  4 25 1 3.00000000E-01 10
  5 1 1 3.00000000E-01 10
  5 2 1 3.00000000E-01 10
  5 3 1 3.00000000E-01 10
  5 4 1 3.00000000E-01 10
  5 5 1 3.00000000E-01 10
  5 6 1 3.00000000E-01 10
  5 7 1 3.00000000E-01 10
  5 8 1 3.00000000E-01 10
  5 9 1 3.00000000E-01 10
  5 10 1 3.00000000E-01 10
  5 11 1 3.00000000E-01 10
  5 12 1 3.00000000E-01 10
  5 13 1 3.00000000E-01 10
  5 14 1 3.00000000E-01 10
  5 15 1 3.00000000E-01 10
  5 16 1 3.00000000E-01 10
  5 17 1 3.00000000E-01 10
  5 18 1 3.00000000E-01 10
  5 19 1 3.00000000E-01 10
  5 20 1 3.00000000E-01 10
  5 21 1 3.00000000E-01 10
  5 22 1 3.00000000E-01 10
  5 23 1 3.00000000E-01 10
  5 24 1 3.00000000E-01 10
  5 25 1 3.00000000E-01 10
  6 1 1 3.00000000E-01 10
  6 2 1 3.00000000E-01 10
  6 3 1 3.00000000E-01 10
  6 4 1 3.00000000E-01 10
  6 5 1 3.00000000E-01 10
  6 6 1 3.00000000E-01 10
  6 7 1 3.00000000E-01 10
  6 8 1 3.00000000E-01 10
  6 9 1 3.00000000E-01 10
  6 10 1 3.00000000E-01 10
  6 11 1 3.00000000E-01 10
  6 12 1 3.00000000E-01 10
  6 13 1 3.00000000E-01 10
  6 14 1 3.00000000E-01 10
  6 15 1 3.00000000E-01 10
  6 16 1 3.00000000E-01 10
  6 17 1 3.00000000E-01 10
  6 18 1 3.00000000E-01 10
  6 19 1 3.00000000E-01 10
  6 20 1 3.00000000E-01 10
  6 21 1 3.00000000E-01 10
  6 22 1 3.00000000E-01 10
  6 23 1 3.00000000E-01 10
  6 24 1 3.00000000E-01 10
  6 25 1 3.00000000E-01 10
  7 1 1 3.00000000E-01 10
  7 2 1 3.00000000E-01 10
  7 3 1 3.00000000E-01 10
  7 4 1 3.00000000E-01 10
  7 5 1 3.00000000E-01 10
  7 6 1 3.00000000E-01 10
  7 7 1 3.00000000E-01 10
  7 8 1 3.00000000E-01 10
  7 9 1 3.00000000E-01 10
  7 10 1 3.00000000E-01 10
  7 11 1 3.00000000E-01 10
  7 12 1 3.00000000E-01 10
  7 13 1 3.00000000E-01 10
  7 14 1 3.00000000E-01 10
  7 15 1 3.00000000E-01 10
  7 16 1 3.00000000E-01 10
  7 17 1 3.00000000E-01 10
  7 18 1 3.00000000E-01 10
  7 19 1 3.00000000E-01 10
  7 20 1 3.00000000E-01 10
  7 21 1 3.00000000E-01 10
  7 22 1 3.00000000E-01 10
  7 23 1 3.00000000E-01 10
  7 24 1 3.00000000E-01 10
  7 25 1 3.00000000E-01 10
  8 1 1 3.00000000E-01 10
  8 2 1 3.00000000E-01 10
  8 3 1 3.00000000E-01 10
  8 4 1 3.00000000E-01 10
  8 5 1 3.00000000E-01 10
  8 6 1 3.00000000E-01 10
  8 7 1 3.00000000E-01 10
  8 8 1 3.00000000E-01 10
  8 9 1 3.00000000E-01 10
  8 10 1 3.00000000E-01 10
  8 11 1 3.00000000E-01 10
  8 12 1 3.00000000E-01 10
  8 13 1 3.00000000E-01 10
  8 14 1 3.00000000E-01 10
  8 15 1 3.00000000E-01 10
  8 16 1 3.00000000E-01 10
  8 17 1 3.00000000E-01 10
  8 18 1 3.00000000E-01 10
  8 19 1 3.00000000E-01 10
  8 20 1 3.00000000E-01 10
  8 21 1 3.00000000E-01 10
  8 22 1 3.00000000E-01 10
  8 23 1 3.00000000E-01 10
  8 24 1 3.00000000E-01 10
  8 25 1 3.00000000E-01 10
  9 1 1 3.00000000E-01 10
  9 2 1 3.00000000E-01 10
  9 3 1 3.00000000E-01 10
  9 4 1 3.00000000E-01 10
  9 5 1 3.00000000E-01 10
  9 6 1 3.00000000E-01 10
  9 7 1 3.00000000E-01 10
  9 8 1 3.00000000E-01 10
  9 9 1 3.00000000E-01 10
  9 10 1 3.00000000E-01 10
  9 11 1 3.00000000E-01 10
  9 12 1 3.00000000E-01 10
  9 13 1 3.00000000E-01 10
  9 14 1 3.00000000E-01 10
  9 15 1 3.00000000E-01 10
  9 16 1 3.00000000E-01 10
  9 17 1 3.00000000E-01 10
  9 18 1 3.00000000E-01 10
  9 19 1 3.00000000E-01 10
  9 20 1 3.00000000E-01 10
  9 21 1 3.00000000E-01 10
  9 22 1 3.00000000E-01 10
  9 23 1 3.00000000E-01 10
  9 24 1 3.00000000E-01 10
  9 25 1 3.00000000E-01 10
  10 1 1 3.00000000E-01 10
  10 2 1 3.00000000E-01 10
  10 3 1 3.00000000E-01 10
  10 4 1 3.00000000E-01 10
  10 5 1 3.00000000E-01 10
  10 6 1 3.00000000E-01 10
  10 7 1 3.00000000E-01 10
  10 8 1 3.00000000E-01 10
  10 9 1 3.00000000E-01 10
  10 10 1 3.00000000E-01 10
  10 11 1 3.00000000E-01 10
  10 12 1 3.00000000E-01 10
  10 13 1 3.00000000E-01 10
  10 14 1 3.00000000E-01 10
  10 15 1 3.00000000E-01 10
  10 16 1 3.00000000E-01 10
  10 17 1 3.00000000E-01 10
  10 18 1 3.00000000E-01 10
  10 19 1 3.00000000E-01 10
  10 20 1 3.00000000E-01 10
  10 21 1 3.00000000E-01 10
  10 22 1 3.00000000E-01 10
  10 23 1 3.00000000E-01 10
  10 24 1 3.00000000E-01 10
  10 25 1 3.00000000E-01 10
  11 1 1 3.00000000E-01 10
  11 2 1 3.00000000E-01 10
  11 3 1 3.00000000E-01 10
  11 4 1 3.00000000E-01 10
  11 5 1 3.00000000E-01 10
  11 6 1 3.00000000E-01 10
  11 7 1 3.00000000E-01 10
  11 8 1 3.00000000E-01 10
  11 9 1 3.00000000E-01 10
  11 10 1 3.00000000E-01 10
  11 11 1 3.00000000E-01 10
  11 12 1 3.00000000E-01 10
  11 13 1 3.00000000E-01 10
  11 14 1 3.00000000E-01 10
  11 15 1 3.00000000E-01 10
  11 16 1 3.00000000E-01 10
  11 17 1 3.00000000E-01 10
  11 18 1 3.00000000E-01 10
  11 19 1 3.00000000E-01 10
  11 20 1 3.00000000E-01 10
  11 21 1 3.00000000E-01 10
  11 22 1 3.00000000E-01 10
  11 23 1 3.00000000E-01 10
  11 24 1 3.00000000E-01 10
  11 25 1 3.00000000E-01 10
  12 1 1 3.00000000E-01 10
  12 2 1 3.00000000E-01 10
  12 3 1 3.00000000E-01 10
  12 4 1 3.00000000E-01 10
  12 5 1 3.00000000E-01 10
  12 6 1 3.00000000E-01 10
  12 7 1 3.00000000E-01 10
  12 8 1 3.00000000E-01 10
  12 9 1 3.00000000E-01 10
  12 10 1 3.00000000E-01 10
  12 11 1 3.00000000E-01 10
  12 12 1 3.00000000E-01 10
  12 13 1 3.00000000E-01 10
  12 14 1 3.00000000E-01 10
  12 15 1 3.00000000E-01 10
  12 16 1 3.00000000E-01 10
  12 17 1 3.00000000E-01 10
  12 18 1 3.00000000E-01 10
  12 19 1 3.00000000E-01 10
  12 20 1 3.00000000E-01 10
  12 21 1 3.00000000E-01 10
  12 22 1 3.00000000E-01 10
  12 23 1 3.00000000E-01 10
  12 24 1 3.00000000E-01 10
  12 25 1 3.00000000E-01 10
  13 1 1 3.00000000E-01 10
  13 2 1 3.00000000E-01 10
  13 3 1 3.00000000E-01 10
  13 4 1 3.00000000E-01 10
  13 5 1 3.00000000E-01 10
  13 6 1 3.00000000E-01 10
  13 7 1 3.00000000E-01 10
  13 8 1 3.00000000E-01 10
  13 9 1 3.00000000E-01 10
  13 10 1 3.00000000E-01 10
  13 11 1 3.00000000E-01 10
  13 12 1 3.00000000E-01 10
  13 13 1 3.00000000E-01 10
  13 14 1 3.00000000E-01 10
  13 15 1 3.00000000E-01 10
  13 16 1 3.00000000E-01 10
  13 17 1 3.00000000E-01 10
  13 18 1 3.00000000E-01 10
  13 19 1 3.00000000E-01 10
  13 20 1 3.00000000E-01 10
  13 21 1 3.00000000E-01 10
  13 22 1 3.00000000E-01 10
  13 23 1 3.00000000E-01 10
  13 24 1 3.00000000E-01 10
  13 25 1 3.00000000E-01 10
  14 1 1 3.00000000E-01 10
  14 2 1 3.00000000E-01 10
  14 3 1 3.00000000E-01 10
  14 4 1 3.00000000E-01 10
  14 5 1 3.00000000E-01 10
  14 6 1 3.00000000E-01 10
  14 7 1 3.00000000E-01 10
  14 8 1 3.00000000E-01 10
  14 9 1 3.00000000E-01 10
  14 10 1 3.00000000E-01 10
  14 11 1 3.00000000E-01 10
  14 12 1 3.00000000E-01 10
  14 13 1 3.00000000E-01 10
  14 14 1 3.00000000E-01 10
  14 15 1 3.00000000E-01 10
  14 16 1 3.00000000E-01 10
  14 17 1 3.00000000E-01 10
  14 18 1 3.00000000E-01 10
  14 19 1 3.00000000E-01 10
  14 20 1 3.00000000E-01 10
  14 21 1 3.00000000E-01 10
  14 22 1 3.00000000E-01 10
  14 23 1 3.00000000E-01 10
  14 24 1 3.00000000E-01 10
  14 25 1 3.00000000E-01 10
  15 1 1 3.00000000E-01 10
  15 2 1 3.00000000E-01 10
  15 3 1 3.00000000E-01 10
  15 4 1 3.00000000E-01 10
  15 5 1 3.00000000E-01 10
  15 6 1 3.00000000E-01 10
  15 7 1 3.00000000E-01 10
  15 8 1 3.00000000E-01 10
  15 9 1 3.00000000E-01 10
  15 10 1 3.00000000E-01 10
  15 11 1 3.00000000E-01 10
  15 12 1 3.00000000E-01 10
  15 13 1 3.00000000E-01 10
  15 14 1 3.00000000E-01 10
  15 15 1 3.00000000E-01 10
  15 16 1 3.00000000E-01 10
  15 17 1 3.00000000E-01 10
  15 18 1 3.00000000E-01 10
  15 19 1 3.00000000E-01 10
  15 20 1 3.00000000E-01 10
  15 21 1 3.00000000E-01 10
  15 22 1 3.00000000E-01 10
  15 23 1 3.00000000E-01 10
  15 24 1 3.00000000E-01 10
  15 25 1 3.00000000E-01 10
  16 1 1 3.00000000E-01 10
  16 2 1 3.00000000E-01 10
  16 3 1 3.00000000E-01 10
  16 4 1 3.00000000E-01 10
  16 5 1 3.00000000E-01 10
  16 6 1 3.00000000E-01 10
  16 7 1 3.00000000E-01 10
  16 8 1 3.00000000E-01 10
  16 9 1 3.00000000E-01 10
  16 10 1 3.00000000E-01 10
  16 11 1 3.00000000E-01 10
  16 12 1 3.00000000E-01 10
  16 13 1 3.00000000E-01 10
  16 14 1 3.00000000E-01 10
  16 15 1 3.00000000E-01 10
  16 16 1 3.00000000E-01 10
  16 17 1 3.00000000E-01 10
  16 18 1 3.00000000E-01 10
  16 19 1 3.00000000E-01 10
  16 20 1 3.00000000E-01 10
  16 21 1 3.00000000E-01 10
  16 22 1 3.00000000E-01 10
  16 23 1 3.00000000E-01 10
  16 24 1 3.00000000E-01 10
  16 25 1 3.00000000E-01 10
  17 1 1 3.00000000E-01 10
  17 2 1 3.00000000E-01 10
  17 3 1 3.00000000E-01 10
  17 4 1 3.00000000E-01 10
  17 5 1 3.00000000E-01 10
  17 6 1 3.00000000E-01 10
  17 7 1 3.00000000E-01 10
  17 8 1 3.00000000E-01 10
  17 9 1 3.00000000E-01 10
  17 10 1 3.00000000E-01 10
  17 11 1 3.00000000E-01 10
  17 12 1 3.00000000E-01 10
  17 13 1 3.00000000E-01 10
  17 14 1 3.00000000E-01 10
  17 15 1 3.00000000E-01 10
  17 16 1 3.00000000E-01 10
  17 17 1 3.00000000E-01 10
  17 18 1 3.00000000E-01 10
  17 19 1 3.00000000E-01 10
  17 20 1 3.00000000E-01 10
  17 21 1 3.00000000E-01 10
  17 22 1 3.00000000E-01 10
  17 23 1 3.00000000E-01 10
  17 24 1 3.00000000E-01 10
  17 25 1 3.00000000E-01 10
  18 1 1 3.00000000E-01 10
  18 2 1 3.00000000E-01 10
  18 3 1 3.00000000E-01 10
  18 4 1 3.00000000E-01 10
  18 5 1 3.00000000E-01 10
  18 6 1 3.00000000E-01 10
  18 7 1 3.00000000E-01 10
  18 8 1 3.00000000E-01 10
  18 9 1 3.00000000E-01 10
  18 10 1 3.00000000E-01 10
  18 11 1 3.00000000E-01 10
  18 12 1 3.00000000E-01 10
  18 13 1 3.00000000E-01 10
  18 14 1 3.00000000E-01 10
  18 15 1 3.00000000E-01 10
  18 16 1 3.00000000E-01 10
  18 17 1 3.00000000E-01 10
  18 18 1 3.00000000E-01 10
  18 19 1 3.00000000E-01 10
  18 20 1 3.00000000E-01 10
  18 21 1 3.00000000E-01 10
  18 22 1 3.00000000E-01 10
  18 23 1 3.00000000E-01 10
  18 24 1 3.00000000E-01 10
  18 25 1 3.00000000E-01 10
  19 1 1 3.00000000E-01 10
  19 2 1 3.00000000E-01 10
  19 3 1 3.00000000E-01 10
  19 4 1 3.00000000E-01 10
  19 5 1 3.00000000E-01 10
  19 6 1 3.00000000E-01 10
  19 7 1 3.00000000E-01 10
  19 8 1 3.00000000E-01 10
  19 9 1 3.00000000E-01 10
  19 10 1 3.00000000E-01 10
  19 11 1 3.00000000E-01 10
  19 12 1 3.00000000E-01 10
  19 13 1 3.00000000E-01 10
  19 14 1 3.00000000E-01 10
  19 15 1 3.00000000E-01 10
  19 16 1 3.00000000E-01 10
  19 17 1 3.00000000E-01 10
  19 18 1 3.00000000E-01 10
  19 19 1 3.00000000E-01 10
  19 20 1 3.00000000E-01 10
  19 21 1 3.00000000E-01 10
  19 22 1 3.00000000E-01 10
  19 23 1 3.00000000E-01 10
  19 24 1 3.00000000E-01 10
  19 25 1 3.00000000E-01 10
  20 1 1 3.00000000E-01 10
  20 2 1 3.00000000E-01 10
  20 3 1 3.00000000E-01 10
  20 4 1 3.00000000E-01 10
  20 5 1 3.00000000E-01 10
  20 6 1 3.00000000E-01 10
  20 7 1 3.00000000E-01 10
  20 8 1 3.00000000E-01 10
  20 9 1 3.00000000E-01 10
  20 10 1 3.00000000E-01 10
  20 11 1 3.00000000E-01 10
  20 12 1 3.00000000E-01 10
  20 13 1 3.00000000E-01 10
  20 14 1 3.00000000E-01 10
  20 15 1 3.00000000E-01 10
  20 16 1 3.00000000E-01 10
  20 17 1 3.00000000E-01 10
  20 18 1 3.00000000E-01 10
  20 19 1 3.00000000E-01 10
  20 20 1 3.00000000E-01 10
  20 21 1 3.00000000E-01 10
  20 22 1 3.00000000E-01 10
  20 23 1 3.00000000E-01 10
  20 24 1 3.00000000E-01 10
  20 25 1 3.00000000E-01 10
  21 1 1 3.00000000E-01 10
  21 2 1 3.00000000E-01 10
  21 3 1 3.00000000E-01 10
  21 4 1 3.00000000E-01 10
  21 5 1 3.00000000E-01 10
  21 6 1 3.00000000E-01 10
  21 7 1 3.00000000E-01 10
  21 8 1 3.00000000E-01 10
  21 9 1 3.00000000E-01 10
  21 10 1 3.00000000E-01 10
  21 11 1 3.00000000E-01 10
  21 12 1 3.00000000E-01 10
  21 13 1 3.00000000E-01 10
  21 14 1 3.00000000E-01 10
  21 15 1 3.00000000E-01 10
  21 16 1 3.00000000E-01 10
  21 17 1 3.00000000E-01 10
  21 18 1 3.00000000E-01 10
  21 19 1 3.00000000E-01 10
  21 20 1 3.00000000E-01 10
  21 21 1 3.00000000E-01 10
  21 22 1 3.00000000E-01 10
  21 23 1 3.00000000E-01 10
  21 24 1 3.00000000E-01 10
  21 25 1 3.00000000E-01 10
  22 1 1 3.00000000E-01 10
  22 2 1 3.00000000E-01 10
  22 3 1 3.00000000E-01 10
  22 4 1 3.00000000E-01 10
  22 5 1 3.00000000E-01 10
  22 6 1 3.00000000E-01 10
  22 7 1 3.00000000E-01 10
  22 8 1 3.00000000E-01 10
  22 9 1 3.00000000E-01 10
  22 10 1 3.00000000E-01 10
  22 11 1 3.00000000E-01 10
  22 12 1 3.00000000E-01 10
  22 13 1 3.00000000E-01 10
  22 14 1 3.00000000E-01 10
  22 15 1 3.00000000E-01 10
  22 16 1 3.00000000E-01 10
  22 17 1 3.00000000E-01 10
  22 18 1 3.00000000E-01 10
  22 19 1 3.00000000E-01 10
  22 20 1 3.00000000E-01 10
  22 21 1 3.00000000E-01 10
  22 22 1 3.00000000E-01 10
  22 23 1 3.00000000E-01 10
  22 24 1 3.00000000E-01 10
  22 25 1 3.00000000E-01 10
  23 1 1 3.00000000E-01 10
  23 2 1 3.00000000E-01 10
  23 3 1 3.00000000E-01 10
  23 4 1 3.00000000E-01 10
  23 5 1 3.00000000E-01 10
  23 6 1 3.00000000E-01 10
  23 7 1 3.00000000E-01 10
  23 8 1 3.00000000E-01 10
  23 9 1 3.00000000E-01 10
  23 10 1 3.00000000E-01 10
  23 11 1 3.00000000E-01 10
  23 12 1 3.00000000E-01 10
  23 13 1 3.00000000E-01 10
  23 14 1 3.00000000E-01 10
  23 15 1 3.00000000E-01 10
  23 16 1 3.00000000E-01 10
  23 17 1 3.00000000E-01 10
  23 18 1 3.00000000E-01 10
  23 19 1 3.00000000E-01 10
  23 20 1 3.00000000E-01 10
  23 21 1 3.00000000E-01 10
  23 22 1 3.00000000E-01 10
  23 23 1 3.00000000E-01 10
  23 24 1 3.00000000E-01 10
  23 25 1 3.00000000E-01 10
  24 1 1 3.00000000E-01 10
  24 2 1 3.00000000E-01 10
  24 3 1 3.00000000E-01 10
  24 4 1 3.00000000E-01 10
  24 5 1 3.00000000E-01 10
  24 6 1 3.00000000E-01 10
  24 7 1 3.00000000E-01 10
  24 8 1 3.00000000E-01 10
  24 9 1 3.00000000E-01 10
  24 10 1 3.00000000E-01 10
  24 11 1 3.00000000E-01 10
  24 12 1 3.00000000E-01 10
  24 13 1 3.00000000E-01 10
  24 14 1 3.00000000E-01 10
  24 15 1 3.00000000E-01 10
  24 16 1 3.00000000E-01 10
  24 17 1 3.00000000E-01 10
  24 18 1 3.00000000E-01 10
  24 19 1 3.00000000E-01 10
  24 20 1 3.00000000E-01 10
  24 21 1 3.00000000E-01 10
  24 22 1 3.00000000E-01 10
  24 23 1 3.00000000E-01 10
  24 24 1 3.00000000E-01 10
  24 25 1 3.00000000E-01 10
  25 1 1 3.00000000E-01 10
  25 2 1 3.00000000E-01 10
  25 3 1 3.00000000E-01 10
  25 4 1 3.00000000E-01 10
  25 5 1 3.00000000E-01 10
  25 6 1 3.00000000E-01 10
  25 7 1 3.00000000E-01 10
  25 8 1 3.00000000E-01 10
  25 9 1 3.00000000E-01 10
  25 10 1 3.00000000E-01 10
  25 11 1 3.00000000E-01 10
  25 12 1 3.00000000E-01 10
  25 13 1 3.00000000E-01 10
  25 14 1 3.00000000E-01 10
  25 15 1 3.00000000E-01 10
  25 16 1 3.00000000E-01 10
  25 17 1 3.00000000E-01 10
  25 18 1 3.00000000E-01 10
  25 19 1 3.00000000E-01 10
  25 20 1 3.00000000E-01 10
  25 21 1 3.00000000E-01 10
  25 22 1 3.00000000E-01 10
  25 23 1 3.00000000E-01 10
  25 24 1 3.00000000E-01 10
  25 25 1 3.00000000E-01 10
END period  1

