# File generated by Flopy version 3.9.2 on 06/23/2025 at 11:51:04.
BEGIN options
  auxiliary  TEMPERATURE
  SAVE_FLOWS
END options

BEGIN dimensions
  MAXBOUND  625
END dimensions

BEGIN period  1
  1 1 25 0 10
  1 2 25 0 10
  1 3 25 0 10
  1 4 25 0 10
  1 5 25 0 10
  1 6 25 0 10
  1 7 25 0 10
  1 8 25 0 10
  1 9 25 0 10
  1 10 25 0 10
  1 11 25 0 10
  1 12 25 0 10
  1 13 25 0 10
  1 14 25 0 10
  1 15 25 0 10
  1 16 25 0 10
  1 17 25 0 10
  1 18 25 0 10
  1 19 25 0 10
  1 20 25 0 10
  1 21 25 0 10
  1 22 25 0 10
  1 23 25 0 10
  1 24 25 0 10
  1 25 25 0 10
  2 1 25 0 10
  2 2 25 0 10
  2 3 25 0 10
  2 4 25 0 10
  2 5 25 0 10
  2 6 25 0 10
  2 7 25 0 10
  2 8 25 0 10
  2 9 25 0 10
  2 10 25 0 10
  2 11 25 0 10
  2 12 25 0 10
  2 13 25 0 10
  2 14 25 0 10
  2 15 25 0 10
  2 16 25 0 10
  2 17 25 0 10
  2 18 25 0 10
  2 19 25 0 10
  2 20 25 0 10
  2 21 25 0 10
  2 22 25 0 10
  2 23 25 0 10
  2 24 25 0 10
  2 25 25 0 10
  3 1 25 0 10
  3 2 25 0 10
  3 3 25 0 10
  3 4 25 0 10
  3 5 25 0 10
  3 6 25 0 10
  3 7 25 0 10
  3 8 25 0 10
  3 9 25 0 10
  3 10 25 0 10
  3 11 25 0 10
  3 12 25 0 10
  3 13 25 0 10
  3 14 25 0 10
  3 15 25 0 10
  3 16 25 0 10
  3 17 25 0 10
  3 18 25 0 10
  3 19 25 0 10
  3 20 25 0 10
  3 21 25 0 10
  3 22 25 0 10
  3 23 25 0 10
  3 24 25 0 10
  3 25 25 0 10
  4 1 25 0 10
  4 2 25 0 10
  4 3 25 0 10
  4 4 25 0 10
  4 5 25 0 10
  4 6 25 0 10
  4 7 25 0 10
  4 8 25 0 10
  4 9 25 0 10
  4 10 25 0 10
  4 11 25 0 10
  4 12 25 0 10
  4 13 25 0 10
  4 14 25 0 10
  4 15 25 0 10
  4 16 25 0 10
  4 17 25 0 10
  4 18 25 0 10
  4 19 25 0 10
  4 20 25 0 10
  4 21 25 0 10
  4 22 25 0 10
  4 23 25 0 10
  4 24 25 0 10
  4 25 25 0 10
  5 1 25 0 10
  5 2 25 0 10
  5 3 25 0 10
  5 4 25 0 10
  5 5 25 0 10
  5 6 25 0 10
  5 7 25 0 10
  5 8 25 0 10
  5 9 25 0 10
  5 10 25 0 10
  5 11 25 0 10
  5 12 25 0 10
  5 13 25 0 10
  5 14 25 0 10
  5 15 25 0 10
  5 16 25 0 10
  5 17 25 0 10
  5 18 25 0 10
  5 19 25 0 10
  5 20 25 0 10
  5 21 25 0 10
  5 22 25 0 10
  5 23 25 0 10
  5 24 25 0 10
  5 25 25 0 10
  6 1 25 0 10
  6 2 25 0 10
  6 3 25 0 10
  6 4 25 0 10
  6 5 25 0 10
  6 6 25 0 10
  6 7 25 0 10
  6 8 25 0 10
  6 9 25 0 10
  6 10 25 0 10
  6 11 25 0 10
  6 12 25 0 10
  6 13 25 0 10
  6 14 25 0 10
  6 15 25 0 10
  6 16 25 0 10
  6 17 25 0 10
  6 18 25 0 10
  6 19 25 0 10
  6 20 25 0 10
  6 21 25 0 10
  6 22 25 0 10
  6 23 25 0 10
  6 24 25 0 10
  6 25 25 0 10
  7 1 25 0 10
  7 2 25 0 10
  7 3 25 0 10
  7 4 25 0 10
  7 5 25 0 10
  7 6 25 0 10
  7 7 25 0 10
  7 8 25 0 10
  7 9 25 0 10
  7 10 25 0 10
  7 11 25 0 10
  7 12 25 0 10
  7 13 25 0 10
  7 14 25 0 10
  7 15 25 0 10
  7 16 25 0 10
  7 17 25 0 10
  7 18 25 0 10
  7 19 25 0 10
  7 20 25 0 10
  7 21 25 0 10
  7 22 25 0 10
  7 23 25 0 10
  7 24 25 0 10
  7 25 25 0 10
  8 1 25 0 10
  8 2 25 0 10
  8 3 25 0 10
  8 4 25 0 10
  8 5 25 0 10
  8 6 25 0 10
  8 7 25 0 10
  8 8 25 0 10
  8 9 25 0 10
  8 10 25 0 10
  8 11 25 0 10
  8 12 25 0 10
  8 13 25 0 10
  8 14 25 0 10
  8 15 25 0 10
  8 16 25 0 10
  8 17 25 0 10
  8 18 25 0 10
  8 19 25 0 10
  8 20 25 0 10
  8 21 25 0 10
  8 22 25 0 10
  8 23 25 0 10
  8 24 25 0 10
  8 25 25 0 10
  9 1 25 0 10
  9 2 25 0 10
  9 3 25 0 10
  9 4 25 0 10
  9 5 25 0 10
  9 6 25 0 10
  9 7 25 0 10
  9 8 25 0 10
  9 9 25 0 10
  9 10 25 0 10
  9 11 25 0 10
  9 12 25 0 10
  9 13 25 0 10
  9 14 25 0 10
  9 15 25 0 10
  9 16 25 0 10
  9 17 25 0 10
  9 18 25 0 10
  9 19 25 0 10
  9 20 25 0 10
  9 21 25 0 10
  9 22 25 0 10
  9 23 25 0 10
  9 24 25 0 10
  9 25 25 0 10
  10 1 25 0 10
  10 2 25 0 10
  10 3 25 0 10
  10 4 25 0 10
  10 5 25 0 10
  10 6 25 0 10
  10 7 25 0 10
  10 8 25 0 10
  10 9 25 0 10
  10 10 25 0 10
  10 11 25 0 10
  10 12 25 0 10
  10 13 25 0 10
  10 14 25 0 10
  10 15 25 0 10
  10 16 25 0 10
  10 17 25 0 10
  10 18 25 0 10
  10 19 25 0 10
  10 20 25 0 10
  10 21 25 0 10
  10 22 25 0 10
  10 23 25 0 10
  10 24 25 0 10
  10 25 25 0 10
  11 1 25 0 10
  11 2 25 0 10
  11 3 25 0 10
  11 4 25 0 10
  11 5 25 0 10
  11 6 25 0 10
  11 7 25 0 10
  11 8 25 0 10
  11 9 25 0 10
  11 10 25 0 10
  11 11 25 0 10
  11 12 25 0 10
  11 13 25 0 10
  11 14 25 0 10
  11 15 25 0 10
  11 16 25 0 10
  11 17 25 0 10
  11 18 25 0 10
  11 19 25 0 10
  11 20 25 0 10
  11 21 25 0 10
  11 22 25 0 10
  11 23 25 0 10
  11 24 25 0 10
  11 25 25 0 10
  12 1 25 0 10
  12 2 25 0 10
  12 3 25 0 10
  12 4 25 0 10
  12 5 25 0 10
  12 6 25 0 10
  12 7 25 0 10
  12 8 25 0 10
  12 9 25 0 10
  12 10 25 0 10
  12 11 25 0 10
  12 12 25 0 10
  12 13 25 0 10
  12 14 25 0 10
  12 15 25 0 10
  12 16 25 0 10
  12 17 25 0 10
  12 18 25 0 10
  12 19 25 0 10
  12 20 25 0 10
  12 21 25 0 10
  12 22 25 0 10
  12 23 25 0 10
  12 24 25 0 10
  12 25 25 0 10
  13 1 25 0 10
  13 2 25 0 10
  13 3 25 0 10
  13 4 25 0 10
  13 5 25 0 10
  13 6 25 0 10
  13 7 25 0 10
  13 8 25 0 10
  13 9 25 0 10
  13 10 25 0 10
  13 11 25 0 10
  13 12 25 0 10
  13 13 25 0 10
  13 14 25 0 10
  13 15 25 0 10
  13 16 25 0 10
  13 17 25 0 10
  13 18 25 0 10
  13 19 25 0 10
  13 20 25 0 10
  13 21 25 0 10
  13 22 25 0 10
  13 23 25 0 10
  13 24 25 0 10
  13 25 25 0 10
  14 1 25 0 10
  14 2 25 0 10
  14 3 25 0 10
  14 4 25 0 10
  14 5 25 0 10
  14 6 25 0 10
  14 7 25 0 10
  14 8 25 0 10
  14 9 25 0 10
  14 10 25 0 10
  14 11 25 0 10
  14 12 25 0 10
  14 13 25 0 10
  14 14 25 0 10
  14 15 25 0 10
  14 16 25 0 10
  14 17 25 0 10
  14 18 25 0 10
  14 19 25 0 10
  14 20 25 0 10
  14 21 25 0 10
  14 22 25 0 10
  14 23 25 0 10
  14 24 25 0 10
  14 25 25 0 10
  15 1 25 0 10
  15 2 25 0 10
  15 3 25 0 10
  15 4 25 0 10
  15 5 25 0 10
  15 6 25 0 10
  15 7 25 0 10
  15 8 25 0 10
  15 9 25 0 10
  15 10 25 0 10
  15 11 25 0 10
  15 12 25 0 10
  15 13 25 0 10
  15 14 25 0 10
  15 15 25 0 10
  15 16 25 0 10
  15 17 25 0 10
  15 18 25 0 10
  15 19 25 0 10
  15 20 25 0 10
  15 21 25 0 10
  15 22 25 0 10
  15 23 25 0 10
  15 24 25 0 10
  15 25 25 0 10
  16 1 25 0 10
  16 2 25 0 10
  16 3 25 0 10
  16 4 25 0 10
  16 5 25 0 10
  16 6 25 0 10
  16 7 25 0 10
  16 8 25 0 10
  16 9 25 0 10
  16 10 25 0 10
  16 11 25 0 10
  16 12 25 0 10
  16 13 25 0 10
  16 14 25 0 10
  16 15 25 0 10
  16 16 25 0 10
  16 17 25 0 10
  16 18 25 0 10
  16 19 25 0 10
  16 20 25 0 10
  16 21 25 0 10
  16 22 25 0 10
  16 23 25 0 10
  16 24 25 0 10
  16 25 25 0 10
  17 1 25 0 10
  17 2 25 0 10
  17 3 25 0 10
  17 4 25 0 10
  17 5 25 0 10
  17 6 25 0 10
  17 7 25 0 10
  17 8 25 0 10
  17 9 25 0 10
  17 10 25 0 10
  17 11 25 0 10
  17 12 25 0 10
  17 13 25 0 10
  17 14 25 0 10
  17 15 25 0 10
  17 16 25 0 10
  17 17 25 0 10
  17 18 25 0 10
  17 19 25 0 10
  17 20 25 0 10
  17 21 25 0 10
  17 22 25 0 10
  17 23 25 0 10
  17 24 25 0 10
  17 25 25 0 10
  18 1 25 0 10
  18 2 25 0 10
  18 3 25 0 10
  18 4 25 0 10
  18 5 25 0 10
  18 6 25 0 10
  18 7 25 0 10
  18 8 25 0 10
  18 9 25 0 10
  18 10 25 0 10
  18 11 25 0 10
  18 12 25 0 10
  18 13 25 0 10
  18 14 25 0 10
  18 15 25 0 10
  18 16 25 0 10
  18 17 25 0 10
  18 18 25 0 10
  18 19 25 0 10
  18 20 25 0 10
  18 21 25 0 10
  18 22 25 0 10
  18 23 25 0 10
  18 24 25 0 10
  18 25 25 0 10
  19 1 25 0 10
  19 2 25 0 10
  19 3 25 0 10
  19 4 25 0 10
  19 5 25 0 10
  19 6 25 0 10
  19 7 25 0 10
  19 8 25 0 10
  19 9 25 0 10
  19 10 25 0 10
  19 11 25 0 10
  19 12 25 0 10
  19 13 25 0 10
  19 14 25 0 10
  19 15 25 0 10
  19 16 25 0 10
  19 17 25 0 10
  19 18 25 0 10
  19 19 25 0 10
  19 20 25 0 10
  19 21 25 0 10
  19 22 25 0 10
  19 23 25 0 10
  19 24 25 0 10
  19 25 25 0 10
  20 1 25 0 10
  20 2 25 0 10
  20 3 25 0 10
  20 4 25 0 10
  20 5 25 0 10
  20 6 25 0 10
  20 7 25 0 10
  20 8 25 0 10
  20 9 25 0 10
  20 10 25 0 10
  20 11 25 0 10
  20 12 25 0 10
  20 13 25 0 10
  20 14 25 0 10
  20 15 25 0 10
  20 16 25 0 10
  20 17 25 0 10
  20 18 25 0 10
  20 19 25 0 10
  20 20 25 0 10
  20 21 25 0 10
  20 22 25 0 10
  20 23 25 0 10
  20 24 25 0 10
  20 25 25 0 10
  21 1 25 0 10
  21 2 25 0 10
  21 3 25 0 10
  21 4 25 0 10
  21 5 25 0 10
  21 6 25 0 10
  21 7 25 0 10
  21 8 25 0 10
  21 9 25 0 10
  21 10 25 0 10
  21 11 25 0 10
  21 12 25 0 10
  21 13 25 0 10
  21 14 25 0 10
  21 15 25 0 10
  21 16 25 0 10
  21 17 25 0 10
  21 18 25 0 10
  21 19 25 0 10
  21 20 25 0 10
  21 21 25 0 10
  21 22 25 0 10
  21 23 25 0 10
  21 24 25 0 10
  21 25 25 0 10
  22 1 25 0 10
  22 2 25 0 10
  22 3 25 0 10
  22 4 25 0 10
  22 5 25 0 10
  22 6 25 0 10
  22 7 25 0 10
  22 8 25 0 10
  22 9 25 0 10
  22 10 25 0 10
  22 11 25 0 10
  22 12 25 0 10
  22 13 25 0 10
  22 14 25 0 10
  22 15 25 0 10
  22 16 25 0 10
  22 17 25 0 10
  22 18 25 0 10
  22 19 25 0 10
  22 20 25 0 10
  22 21 25 0 10
  22 22 25 0 10
  22 23 25 0 10
  22 24 25 0 10
  22 25 25 0 10
  23 1 25 0 10
  23 2 25 0 10
  23 3 25 0 10
  23 4 25 0 10
  23 5 25 0 10
  23 6 25 0 10
  23 7 25 0 10
  23 8 25 0 10
  23 9 25 0 10
  23 10 25 0 10
  23 11 25 0 10
  23 12 25 0 10
  23 13 25 0 10
  23 14 25 0 10
  23 15 25 0 10
  23 16 25 0 10
  23 17 25 0 10
  23 18 25 0 10
  23 19 25 0 10
  23 20 25 0 10
  23 21 25 0 10
  23 22 25 0 10
  23 23 25 0 10
  23 24 25 0 10
  23 25 25 0 10
  24 1 25 0 10
  24 2 25 0 10
  24 3 25 0 10
  24 4 25 0 10
  24 5 25 0 10
  24 6 25 0 10
  24 7 25 0 10
  24 8 25 0 10
  24 9 25 0 10
  24 10 25 0 10
  24 11 25 0 10
  24 12 25 0 10
  24 13 25 0 10
  24 14 25 0 10
  24 15 25 0 10
  24 16 25 0 10
  24 17 25 0 10
  24 18 25 0 10
  24 19 25 0 10
  24 20 25 0 10
  24 21 25 0 10
  24 22 25 0 10
  24 23 25 0 10
  24 24 25 0 10
  24 25 25 0 10
  25 1 25 0 10
  25 2 25 0 10
  25 3 25 0 10
  25 4 25 0 10
  25 5 25 0 10
  25 6 25 0 10
  25 7 25 0 10
  25 8 25 0 10
  25 9 25 0 10
  25 10 25 0 10
  25 11 25 0 10
  25 12 25 0 10
  25 13 25 0 10
  25 14 25 0 10
  25 15 25 0 10
  25 16 25 0 10
  25 17 25 0 10
  25 18 25 0 10
  25 19 25 0 10
  25 20 25 0 10
  25 21 25 0 10
  25 22 25 0 10
  25 23 25 0 10
  25 24 25 0 10
  25 25 25 0 10
END period  1

