# File generated by Flopy version 3.9.1 on 06/24/2025 at 08:50:04.
BEGIN options
  SAVE_FLOWS
  SAVE_SPECIFIC_DISCHARGE
  SAVE_SATURATION
END options

BEGIN griddata
  icelltype
    CONSTANT  0
  k  LAYERED
    INTERNAL  FACTOR  1.0
      4.53335896E-04  6.91413962E-04  3.61896978E-04  5.32007186E-04  3.33676282E-04  2.72514119E-04  7.67793588E-04       0.00100939  2.10927813E-04  5.21662773E-05  7.27298917E-05  1.01382170E-04  1.12426826E-04  3.23295499E-04       0.00213338  6.49996799E-04  3.04883124E-04  1.04389446E-04  7.41192339E-05  2.20004860E-04  2.52035459E-04  2.16789312E-04  3.86483026E-04  4.76994023E-04  4.97787486E-04
      4.09111293E-04  8.59917512E-04  3.63576020E-04  3.50315383E-04  2.63256093E-04  2.00816509E-04  5.16126879E-04  6.07635461E-04  1.15599449E-04  3.60993738E-05  6.94183016E-05  9.36870564E-05  1.05955281E-04  3.00868324E-04       0.00178882  5.07713481E-04  2.03644466E-04  6.94551707E-05  4.31003319E-05  1.22317336E-04  3.38564852E-04  5.18202970E-04  4.58414431E-04  3.37687933E-04  4.46903864E-04
      2.87683199E-04  9.67163915E-04  4.56945119E-04  2.98137935E-04  3.00224699E-04  2.72531587E-04  4.43051948E-04  4.54442799E-04  9.77317569E-05  4.54549027E-05  9.79227719E-05  8.37002200E-05  1.09741666E-04  3.75970709E-04       0.00115942  4.98541890E-04  9.56375843E-05  7.78388519E-05  3.90720781E-05  6.15283343E-05  2.82595593E-04  9.11782872E-04  6.26782243E-04  3.34968783E-04  4.36052270E-04
      2.81384125E-04  7.98546418E-04  4.90187545E-04  3.02988516E-04  4.29261605E-04  3.66986975E-04  3.91772409E-04  3.41059257E-04  1.25706471E-04  9.05680490E-05  1.68991616E-04  1.23008878E-04  1.71987676E-04  5.92420161E-04  9.52904668E-04  5.19183233E-04  7.77950690E-05  8.44286152E-05  5.05365322E-05  4.42478361E-05  2.04027098E-04  8.16927934E-04       0.00111921  6.10065498E-04  5.30667668E-04
      2.64028826E-04  8.17673655E-04  6.56298379E-04  4.54946778E-04  5.95720966E-04  3.55023903E-04  2.38087584E-04  2.53962754E-04  1.81529304E-04  1.67375017E-04  2.95807079E-04  2.17880931E-04  3.24396517E-04  9.81198791E-04  7.93722544E-04  3.87790510E-04  1.39953747E-04  1.71794768E-04  7.97024844E-05  5.16562529E-05  1.80976025E-04  7.27671774E-04       0.00179932       0.00129749  9.29520183E-04
      2.15047148E-04  8.55049534E-04       0.00119230  9.35093946E-04  8.17090558E-04  2.72840770E-04  1.47786974E-04  1.67977407E-04  1.62749674E-04  2.13949271E-04  3.70990165E-04  2.80088188E-04  5.35622839E-04       0.00119409  6.49946808E-04  2.58529830E-04  3.03087201E-04  3.29994772E-04  1.47237071E-04  4.77485419E-05  2.67854847E-04  8.95169255E-04       0.00218081       0.00234034       0.00199061
      2.35671705E-04  8.18776580E-04       0.00156272       0.00160947  9.33955949E-04  1.91593901E-04  7.28801965E-05  7.65787537E-05  1.48561767E-04  2.49951754E-04  3.84837175E-04  3.50631606E-04  4.49815447E-04  7.27678212E-04  3.36834014E-04  2.21362774E-04  4.54340318E-04  5.68979622E-04  2.25105798E-08  1.43264784E-04  3.44972642E-04  7.63094334E-04       0.00167817       0.00262630       0.00361562
      2.26296990E-04  6.68228170E-04       0.00170452       0.00159656       0.00104787  1.76382409E-04  5.16879937E-05  6.64269432E-05  2.06251039E-04  2.88486151E-04  3.76033037E-04  2.48387961E-04  2.11026838E-04  2.40125254E-04  1.27766052E-04  1.34599637E-04  3.73255924E-04  8.23360479E-04  3.27555058E-04  2.34451117E-08  6.15921302E-04  6.43127025E-04  8.49517519E-04       0.00220672       0.00278610
      1.30449809E-04  4.93090481E-04       0.00109512  7.84951186E-04  5.65561628E-04  1.40423030E-04  6.47487943E-05  1.12131745E-04  3.20798917E-04  3.35990264E-04  4.60799430E-04  1.90622523E-04  7.93224549E-05  7.38001228E-05  8.20683203E-05  1.10095208E-04  4.04732038E-04       0.00139370  1.75494266E-04  9.28968556E-05       0.00106650  3.94844459E-04  3.53628820E-04  9.69245073E-04  9.49564026E-04
      5.10601088E-05  2.38247074E-04  4.34826499E-04  2.60012677E-04  1.93460412E-04  1.85674753E-04  1.35408458E-04  2.28911671E-04  5.10526261E-04  4.48399256E-04  5.21983343E-04  1.68304090E-04  5.33600542E-05  4.13970602E-05  5.49827584E-05  8.79734107E-05  5.44616574E-04       0.00176747       0.00195407       0.00228237       0.00124335  2.22614681E-04  1.99732377E-04  4.32603368E-04  3.99421631E-04
      3.17033415E-05  1.43105418E-04  2.05134668E-04  1.01745798E-04  8.23374171E-05  2.39522307E-04  2.55573609E-04  4.64496358E-04  8.75487266E-04  7.11643983E-04  5.46337489E-04  1.96262631E-04  6.60415831E-05  4.36804623E-05  7.40107720E-05  8.21191364E-05  4.10554525E-04       0.00155144       0.00382304       0.00444204       0.00125804  1.68390807E-04  1.55606164E-04  2.13571517E-04  2.02558810E-04
      3.31369841E-05  1.11574087E-04  1.36759627E-04  5.21844561E-05  5.02036464E-05  2.13793479E-04  2.28328173E-04  4.97029209E-04       0.00138686       0.00116945  5.59314628E-04  2.43181801E-04  1.02424364E-04  5.93017061E-05  7.82489819E-05  1.03136230E-04  2.40395297E-04  6.36050956E-04       0.00242260       0.00640428       0.00101113  1.87076426E-04  1.26154896E-04  1.46318504E-04  2.46642214E-04
      7.22852471E-05  1.43525132E-04  1.65365836E-04  4.02332859E-05  5.05418761E-05  1.90808365E-04  1.52408062E-04  3.60911842E-04       0.00159779       0.00150041  9.97818779E-04  2.91884527E-04  1.22220825E-04  7.48452663E-05  9.19746368E-05  1.37494010E-04  1.69522094E-04  2.12128454E-04  9.61939028E-04       0.00439838  6.61669354E-04  2.44243285E-04  1.38927148E-04  1.41123280E-04  3.32780874E-04
      2.53604073E-04  5.02294262E-04  3.77547278E-04  7.30924440E-05  7.55832099E-05  1.99348229E-04  1.35474638E-04  4.10114588E-04       0.00143135       0.00152427  9.97378215E-04  2.56140238E-04  1.38823777E-04  1.01760058E-04  9.96348688E-05  1.94731129E-04  1.06502153E-04  9.93692360E-05  4.12119391E-04       0.00153362  6.04385662E-04  3.08267518E-04  2.30026568E-04  1.78676427E-04  3.08056097E-04
      6.57840222E-04       0.00162953  7.44138517E-04  1.69791175E-04  1.54688243E-04  2.61163756E-04  1.78371546E-04  5.07257098E-04       0.00116162       0.00126292  5.98711657E-04  2.81738216E-04  1.77738126E-04  1.43812746E-04  1.52176493E-04  3.59854636E-04  1.62027987E-04  9.65430485E-05  2.39150434E-04  3.14733253E-04  2.91073656E-04  3.44286953E-04  3.38257349E-04  2.68590119E-04  3.10213079E-04
           0.00147730       0.00474161       0.00148837  3.08556916E-04  2.05955674E-04  2.61932676E-04  2.30816969E-04  4.91292175E-04       0.00114698  7.91639624E-04  4.05107283E-04  3.35101628E-04  2.36153034E-04  1.89691887E-04  2.42975473E-04  5.78479988E-04  2.26643772E-04  1.06361782E-04  1.22874687E-04  7.89668053E-05  8.66383183E-05  2.69138028E-04  5.13953903E-04  5.50272253E-04  3.46097506E-04
           0.00260173       0.00797969       0.00196937  5.71274527E-04  3.01803502E-04  2.65496696E-04  2.77224001E-04  4.42744441E-04  8.93816622E-04  6.31905121E-04  5.92910779E-04  3.75347445E-04  2.29249950E-04  1.91129411E-04  2.37972187E-04  6.28318638E-04  2.47550658E-04  1.01052760E-04  8.15332016E-05  3.11338873E-05  4.07459593E-05  2.10602609E-04  8.56578773E-04  9.67694812E-04  4.19884271E-04
           0.00358175       0.00690100       0.00143686  5.34877584E-04  3.30789021E-04  3.26080999E-04  3.93534436E-04  4.93632566E-04  6.67452381E-04  5.40001656E-04  5.83423794E-04  3.66761788E-04  1.99719183E-04  1.54662810E-04  2.30613286E-04  5.67113705E-04  2.09442698E-04  8.37998088E-05  6.12822369E-05  3.04770639E-05  3.66620873E-05  2.65543388E-04       0.00166879       0.00174090  5.30044129E-04
           0.00235087       0.00382835  6.65737820E-04  5.15879037E-04  3.87551134E-04  3.54807317E-04  5.11422030E-04  5.05387236E-04  5.98342911E-04  4.93849172E-04  5.01752355E-04  3.31712835E-04  1.80321897E-04  1.25080820E-04  1.90677877E-04  2.69218614E-04  1.47958990E-04  7.25706496E-05  6.80080043E-05  4.44611772E-05  6.59009540E-05  3.80101402E-04       0.00211021       0.00218695  7.05795808E-04
           0.00164774       0.00162366  4.46676308E-04  6.17522835E-04  5.67418001E-04  5.28700631E-04  7.40974380E-04  4.36319051E-04  5.31266302E-04  5.47916636E-04  4.39028384E-04  2.81114333E-04  1.46574249E-04  9.08747347E-05  1.18512955E-04  1.33199075E-04  1.12193005E-04  7.09278677E-05  7.70343801E-05  5.24086220E-05  6.83941401E-05  3.71864728E-04       0.00164439       0.00213785  7.94857643E-04
      8.58084228E-04  5.39733636E-04  4.57893702E-04  8.66283853E-04  9.28011671E-04  9.92313624E-04       0.00115873  4.77854267E-04  5.59192530E-04  6.13479102E-04  4.09553765E-04  2.36332699E-04  1.18623614E-04  6.54750691E-05  8.18420815E-05  1.00687478E-04  1.35590284E-04  9.05675373E-05  9.41158519E-05  8.04639400E-05  1.04503618E-04  3.75448468E-04       0.00122645       0.00133772  6.62385035E-04
      4.01073598E-04  2.46866469E-04  3.92144148E-04  8.97240768E-04       0.00125804       0.00141221       0.00110068  5.91746106E-04  9.12028407E-04  7.46958248E-04  5.60140876E-04  1.96200209E-04  1.21946560E-04  8.55466011E-05  6.18782586E-05  1.22027201E-04  1.97569890E-04  1.46088871E-04  1.25101456E-04  1.17561366E-04  1.87164959E-04  3.49930368E-04  7.93598173E-04  7.97932458E-04  4.03428558E-04
      2.37272917E-04  1.64562491E-04  3.47718572E-04  6.61999023E-04  9.75215316E-04       0.00135367  8.64261415E-04  7.18562970E-04       0.00127525  9.62924727E-04  5.76823615E-04  1.61961699E-04  1.27707654E-04  1.36332347E-04  7.93617443E-05  2.40492206E-04  5.10820115E-04  3.26303256E-04  2.15596077E-04  1.74021434E-04  2.87869183E-04  2.68146242E-04  4.59563156E-04  6.93242751E-04  3.18882949E-04
      1.76064139E-04  1.00364276E-04  2.49098604E-04  3.29984969E-04  5.49145557E-04  7.96447158E-04  7.70645299E-04  8.49594171E-04       0.00181799       0.00116654  4.67213478E-04  1.82063992E-04  2.00110767E-04  1.75149830E-04  1.12666078E-04  3.68169564E-04  9.39204007E-04  6.04615977E-04  3.44872025E-04  2.66803524E-04  2.87913599E-04  2.22918073E-04  3.33484066E-04  5.42917586E-04  3.84326853E-04
      1.35040830E-04  5.34617190E-05  1.16543763E-04  2.03511271E-04  3.50808044E-04  4.05372776E-04  6.51766790E-04  6.62847765E-04       0.00110695  9.46760960E-04  3.20618697E-04  2.16311094E-04  2.89785325E-04  2.74837403E-04  1.77598574E-04  4.84547867E-04       0.00113772       0.00122296  5.10962693E-04  2.91460778E-04  1.80575138E-04  1.60506788E-04  2.53337424E-04  4.73711668E-04  5.61118148E-04
    INTERNAL  FACTOR  1.0
      4.63878873E-04  6.90446021E-04  3.67859841E-04  5.37415910E-04  3.27666463E-04  2.63662623E-04  7.56060211E-04       0.00100443  2.09816456E-04  4.98702690E-05  7.18977532E-05  1.01533737E-04  1.10206165E-04  3.13954194E-04       0.00210929  3.35447466E-04  3.21649151E-08  1.27623626E-08  2.83196092E-08  2.10015331E-04  2.49916726E-04  2.05248950E-04  3.59679903E-04  4.75291247E-04  5.08792454E-04
      4.18421594E-04  8.65170746E-04  3.58958863E-04  3.46012161E-04  2.53304731E-04  1.92253501E-04  5.25408481E-04  5.99980128E-04  1.11052051E-04  3.42328731E-05  6.90630422E-05  9.53801866E-05  1.07458444E-04  2.84985832E-04       0.00176221  1.87397500E-04  1.76764181E-08  1.49242210E-08  1.88319563E-05  1.17619835E-04  3.46816384E-04  4.96507773E-04  4.38884981E-04  3.40998323E-04  4.59848335E-04
      2.90041459E-04  9.93622115E-04  4.32067865E-04  2.80025482E-04  2.85808091E-04  2.56962272E-04  4.42433617E-04  4.49799653E-04  9.32059790E-05  4.31816213E-05  9.32725768E-05  8.49683827E-05  1.08569504E-04  3.75809557E-04       0.00114685  3.44283428E-08  1.11351641E-08  1.90047467E-08  3.64210703E-05  5.99867432E-05  2.87779157E-04  9.53205185E-04  6.03725607E-04  3.47815762E-04  4.42401999E-04
      2.84935343E-04  8.15043194E-04  4.63482790E-04  2.77007190E-04  4.00377819E-04  3.44537831E-04  3.94582380E-04  3.43689142E-04  1.22617163E-04  8.61185825E-05  1.59663974E-04  1.21708871E-04  1.72157957E-04  6.10425803E-04  9.01829491E-04  2.96571781E-08  8.97665019E-09  8.22700432E-09  5.24014676E-05  4.46681612E-05  2.10884954E-04  8.80617785E-04       0.00112632  6.29440020E-04  5.36654672E-04
      2.75514261E-04  8.06893924E-04  6.30587704E-04  4.28476859E-04  5.67673685E-04  3.40397821E-04  2.43519216E-04  2.52546947E-04  1.83693369E-04  1.65219015E-04  2.82310686E-04  2.14946062E-04  3.38310089E-04       0.00102228  7.55417241E-04  2.87568626E-08  8.95991394E-09  1.40251704E-08  7.31255494E-05  4.07854351E-05  1.91762719E-04  7.65634529E-04       0.00185221       0.00129559  8.81649687E-04
      2.20504242E-04  8.48119675E-04       0.00113333  9.03380890E-04  7.96624493E-04  2.73152489E-04  1.47752094E-04  1.64614563E-04  1.72286312E-04  2.23878440E-04  3.68386818E-04  2.79804380E-04  5.45572471E-04       0.00123431  6.39559074E-04  2.26404650E-08  6.28575171E-09  2.49841546E-08  4.57013975E-04  8.76949448E-09  1.91211036E-04  9.24982126E-04       0.00227111       0.00230047       0.00182590
      2.40434930E-04  8.21815433E-04       0.00151351       0.00152051  9.14785170E-04  1.87928348E-04  7.46611336E-05  7.78912604E-05  1.56768012E-04  2.66326385E-04  3.86874900E-04  3.56689249E-04  4.52560836E-04  7.20641560E-04  3.26436576E-04  1.20338212E-08  5.16998598E-09  4.28546684E-04  8.25417689E-04  7.44314313E-09  3.20197237E-04  7.89262878E-04       0.00171600       0.00258944       0.00318810
      2.29417113E-04  6.80103393E-04       0.00168473       0.00153857       0.00103030  1.72939483E-04  5.32580685E-05  6.86743314E-05  2.19057919E-04  3.01464527E-04  3.80336113E-04  2.51787311E-04  2.11046450E-04  2.33657123E-04  1.10247355E-04  4.74889818E-09  3.65372370E-09  5.10248345E-04  2.47924218E-08  9.37407946E-09  5.98876223E-04  6.42936649E-04  8.40587624E-04       0.00218668       0.00248905
      1.35155270E-04  4.99220690E-04       0.00110004  7.62746671E-04  5.73637504E-04  1.44820580E-04  6.77078026E-05  1.11490213E-04  3.41224590E-04  3.46090145E-04  4.72710318E-04  1.95182399E-04  7.90711971E-05  7.33175253E-05  1.41386087E-08  1.64271965E-09  1.54674762E-09  5.55689272E-04  3.15418099E-04  4.28668357E-08       0.00103766  3.84829748E-04  3.51560057E-04  9.59234829E-04  8.97380060E-04
      5.05952398E-05  2.33453913E-04  4.35162609E-04  2.66751921E-04  2.04088775E-04  1.94797550E-04  1.36979615E-04  2.24269170E-04  5.17231868E-04  4.59382899E-04  5.57681662E-04  1.75650829E-04  5.42844601E-05  4.01990115E-05  8.01807402E-09  1.03151381E-09  7.46579186E-10       0.00154851  1.99912479E-04  3.69756588E-04       0.00123880  2.15022356E-04  1.89836396E-04  4.12594245E-04  3.82237556E-04
      3.10093682E-05  1.41612349E-04  2.05912853E-04  1.04757091E-04  8.36576497E-05  2.40686836E-04  2.51202365E-04  4.48432780E-04  8.62472892E-04  7.29457630E-04  5.69897821E-04  2.04970629E-04  6.88035937E-05  2.22573476E-05  5.84852490E-09  1.14716621E-09  5.01382339E-10       0.00163485       0.00282447       0.00403136       0.00123264  1.68854750E-04  1.55926351E-04  2.04610009E-04  1.93836515E-04
      3.25008182E-05  1.07819567E-04  1.34378960E-04  5.44768787E-05  5.12217605E-05  2.10570866E-04  2.25212135E-04  4.84910451E-04       0.00132654  8.67316254E-04  4.15155158E-04  2.43727660E-04  1.03456533E-04  4.47504432E-05  8.74686586E-09  1.70893076E-09  7.21668773E-10  6.50001764E-04       0.00238654       0.00654125       0.00102686  1.90714154E-04  1.37139460E-04  1.47060137E-04  2.37772406E-04
      7.06499665E-05  1.41916005E-04  1.62223974E-04  4.11037636E-05  5.14481240E-05  1.86089368E-04  1.47265870E-04  2.02393999E-04  3.62193028E-04  4.13722349E-08  3.35015938E-04  2.42731931E-04  1.17110745E-04  6.72333783E-05  8.17876194E-09  2.03923186E-09  1.19667364E-09  2.17497516E-04  9.02626092E-04       0.00428532  6.93055634E-04  2.52495621E-04  1.52027877E-04  1.44397497E-04  3.13072102E-04
      2.50489890E-04  4.96049518E-04  3.84052246E-04  7.49966356E-05  7.75473459E-05  1.95109223E-04  1.31308133E-04  7.18356085E-08  3.03542559E-08  1.99894431E-08  1.99881009E-08  1.78258734E-04  1.31390853E-04  1.01248363E-04  5.43987260E-09  2.71885411E-09  2.52914051E-09  1.01085172E-04  3.90065857E-04       0.00144546  6.05785881E-04  3.14126815E-04  2.32837667E-04  1.69614017E-04  2.79015360E-04
      6.70910782E-04       0.00166045  7.88941127E-04  1.78583192E-04  1.64309718E-04  2.68612088E-04  1.34342540E-04  1.90555008E-08  1.88086705E-08  1.93897227E-08  1.02321253E-08  2.90097701E-08  1.73426708E-04  1.26417386E-04  3.02432953E-09  2.65189016E-09  6.72452495E-09  9.68495730E-05  2.33745157E-04  2.97098432E-04  2.80743940E-04  3.58759756E-04  3.17102769E-04  2.44519631E-04  2.83580152E-04
           0.00149981       0.00481839       0.00160429  3.32264795E-04  2.23623919E-04  2.67776906E-04  1.51092704E-04  4.63364371E-08  3.93829578E-04  2.91206891E-04  7.50019565E-09  6.10955728E-09  1.70306252E-04  1.27063581E-04  7.29536264E-05  2.01354144E-04  1.67159156E-04  1.07651389E-04  1.23905620E-04  7.53431819E-05  7.97261586E-05  2.66119801E-04  4.72943870E-04  5.16310302E-04  3.34527953E-04
           0.00267033       0.00829476       0.00208143  6.03981687E-04  3.04021787E-04  2.70663389E-04  2.37476988E-04  2.41441007E-04  7.63615796E-04  5.45750233E-04  1.98434336E-04  1.57027590E-08  1.21047770E-04  1.19245972E-04  1.36333874E-04  4.42479263E-04  2.20720415E-04  1.03354693E-04  8.40556899E-05  3.13991506E-05  4.01293528E-05  2.08224544E-04  8.00763579E-04  9.24099344E-04  4.26622621E-04
           0.00370813       0.00723863       0.00153070  5.67706485E-04  3.33421688E-04  3.23589849E-04  3.77770590E-04  4.60990484E-04  6.36394735E-04  5.24503030E-04  3.48210524E-04  1.85873245E-04  1.28770577E-04  1.53517102E-04  2.25201043E-04  5.38303799E-04  2.17937761E-04  8.63002672E-05  6.42098294E-05  3.17905911E-05  3.81817497E-05  2.69147127E-04       0.00159051       0.00166434  5.53024454E-04
           0.00242808       0.00396330  7.20490571E-04  5.24988717E-04  4.02150749E-04  3.50626469E-04  4.70297362E-04  4.84280140E-04  5.95570628E-04  4.88558512E-04  5.15032387E-04  1.80723659E-04  1.77129748E-04  1.23056558E-04  1.80611605E-04  2.64072547E-04  1.52501707E-04  7.48129602E-05  6.84513843E-05  4.68414729E-05  7.11130155E-05  3.85835838E-04       0.00204393       0.00210423  7.33036848E-04
      8.55300812E-04       0.00129874  4.69626225E-04  6.25875428E-04  5.82884083E-04  5.16514272E-04  7.01972483E-04  4.08294962E-04  5.33693878E-04  5.43702998E-04  4.46781988E-04  2.89103022E-04  1.45021384E-04  8.65319329E-05  1.33770563E-04  1.91020215E-04  1.14580400E-04  7.07562771E-05  7.76472045E-05  5.52259215E-05  7.46387943E-05  3.92357958E-04       0.00165797       0.00203004  7.84308635E-04
      6.35173224E-04  3.68315234E-04  4.86754702E-04  8.85949357E-04  9.38929727E-04  9.67577372E-04       0.00107210  4.43714729E-04  5.63956746E-04  6.19541711E-04  4.32045985E-04  2.46379928E-04  1.16827300E-04  6.38306963E-05  9.35814271E-05  1.19320880E-04  1.38920903E-04  9.09023906E-05  9.33456152E-05  8.18933302E-05  1.08305975E-04  3.80557146E-04       0.00122097       0.00127851  6.56446322E-04
      4.38562064E-04  2.31004943E-04  4.15920017E-04  9.43109567E-04       0.00127004       0.00138699       0.00102790  5.68947539E-04  9.11054061E-04  7.56149936E-04  5.71024243E-04  1.87940601E-04  1.17229427E-04  8.12833049E-05  6.09693838E-05  1.16215355E-04  1.96260577E-04  1.47515017E-04  1.23704702E-04  1.20956261E-04  1.91443745E-04  3.55630370E-04  7.75772803E-04  7.46197531E-04  3.94614042E-04
      2.38034048E-04  1.72122868E-04  3.59558446E-04  6.76502516E-04  9.40400341E-04       0.00131851  8.47226499E-04  7.23331195E-04       0.00129563  9.74787277E-04  5.70168755E-04  1.58315660E-04  1.23144050E-04  1.32296986E-04  7.87553485E-05  2.36242957E-04  5.14687305E-04  3.23670284E-04  2.11072775E-04  1.79112257E-04  2.86164899E-04  2.70272690E-04  4.51683403E-04  6.37528298E-04  3.02445706E-04
      1.42834740E-04  7.91356002E-05  2.61041794E-04  3.33651623E-04  5.16549878E-04  7.66451980E-04  7.50511599E-04  8.37100844E-04       0.00181470       0.00118190  4.61955235E-04  1.82740222E-04  1.93031671E-04  1.71514984E-04  1.12230803E-04  3.57232419E-04  9.43460313E-04  5.87604601E-04  3.45846605E-04  2.63862853E-04  2.81970176E-04  2.15870209E-04  3.18497903E-04  5.14344476E-04  3.73292583E-04
      6.86640129E-05  2.60664538E-05  1.06571307E-04  1.94463563E-04  3.33865045E-04  3.96796916E-04  6.33642916E-04  6.70574126E-04       0.00110973  9.54934143E-04  3.30117315E-04  2.19539224E-04  2.96815382E-04  2.70823844E-04  1.78736123E-04  4.90709434E-04       0.00116302       0.00121522  4.99091630E-04  2.79162709E-04  1.74296905E-04  1.53639866E-04  2.45768984E-04  4.53685275E-04  5.78728765E-04
    INTERNAL  FACTOR  1.0
      4.76128319E-04  6.88331687E-04  3.74415977E-04  5.44320872E-04  1.62289187E-04  1.59733903E-04  7.43245617E-04       0.00100144  2.08138482E-04  4.77275406E-05  7.12897729E-05  1.01537075E-04  1.09292601E-04  3.06517293E-04  8.90206674E-09  6.42513614E-09  2.51538481E-08  1.25778042E-08  5.00105758E-09  7.80556802E-09  2.31951096E-04  1.93964117E-04  3.35372568E-04  4.68054907E-04  5.19969608E-04
      4.26615178E-04  8.66548098E-04  3.54759952E-04  2.76747460E-04  1.23798537E-04  1.68407992E-04  5.34403335E-04  5.88073302E-04  1.06476664E-04  3.28485729E-05  6.89611037E-05  9.73151162E-05  1.08648350E-04  2.70912394E-04  1.27878633E-08  7.52220230E-09  1.77239783E-08  1.06352477E-08  5.29948276E-09  3.77237181E-05  3.54325070E-04  4.77796748E-04  4.18238652E-04  3.44830159E-04  4.68407622E-04
      2.92021436E-04       0.00101527  4.06207147E-04  2.41394963E-04  1.75695660E-04  2.42813268E-04  4.37155914E-04  4.45524232E-04  8.90355618E-05  4.12582606E-05  8.94697048E-05  8.68215979E-05  1.07726025E-04  3.79704762E-04  8.77158693E-04  7.32005208E-09  1.16580501E-08  7.81454493E-09  7.44396894E-09  5.81685197E-05  2.93287642E-04  9.92293833E-04  5.84130197E-04  3.61112602E-04  4.51500161E-04
      2.89126518E-04  8.30652630E-04  4.42418670E-04  2.53306975E-04  3.41291579E-04  3.23543769E-04  3.96701952E-04  3.44414579E-04  1.19752997E-04  8.19977596E-05  1.51283643E-04  1.20959341E-04  1.71546317E-04  6.31402539E-04  6.58512355E-04  7.79481646E-09  9.30376769E-09  5.71199475E-09  1.21676255E-08  5.19483822E-05  2.19314497E-04  9.44327729E-04       0.00113113  6.48208403E-04  5.41014522E-04
      2.85926857E-04  7.97532172E-04  6.07277651E-04  4.03395877E-04  5.40186903E-04  3.28271695E-04  2.48463698E-04  2.49860483E-04  1.85675989E-04  1.64154553E-04  2.71450405E-04  2.09496631E-04  3.51267482E-04       0.00106771  3.21307982E-04  7.81394354E-09  9.27215124E-09  5.03701561E-09  8.65387247E-09  9.09848323E-09  1.34199987E-04  8.10003460E-04       0.00190275       0.00129615  8.36750734E-04
      2.27485478E-04  8.34186297E-04       0.00107806  8.69342915E-04  7.69709384E-04  2.73367612E-04  1.48388542E-04  1.60678276E-04  1.83357647E-04  2.34162531E-04  3.62255204E-04  2.79579252E-04  5.54344010E-04       0.00127333  3.38938492E-08  6.50474693E-09  6.49346510E-09  7.04364611E-09  4.28769906E-04  7.94006987E-09  3.41695787E-04  9.51629097E-04       0.00233615       0.00225652       0.00166796
      2.46927763E-04  8.22235994E-04       0.00145975       0.00142867  8.85054424E-04  1.85798772E-04  7.67660533E-05  7.94845841E-05  1.65871734E-04  2.86175623E-04  3.90452391E-04  3.62331135E-04  4.52453718E-04  7.08695687E-04  3.44520534E-08  6.28957584E-09  5.25214825E-09  8.93456323E-09  5.67839989E-04  7.80727870E-09  2.78308445E-08  8.13975748E-04       0.00175542       0.00255807       0.00279985
      2.30836292E-04  6.86742669E-04       0.00165397       0.00146710       0.00100544  1.69471289E-04  5.50299864E-05  7.16305481E-05  2.32635993E-04  3.14978012E-04  3.86041390E-04  2.55709911E-04  2.10464851E-04  2.27419692E-04  1.55649959E-08  3.93011704E-09  3.67143939E-09  7.79153622E-09  5.92609300E-04  8.85758510E-05  5.41557784E-04  6.42385939E-04  8.31130297E-04       0.00215892       0.00220020
      1.39372282E-04  5.01661535E-04       0.00109680  7.41279670E-04  5.82517320E-04  1.50309037E-04  7.16237794E-05  1.11933763E-04  3.63172578E-04  3.55763630E-04  4.85545323E-04  2.00168041E-04  7.86218702E-05  5.58469013E-05  6.21477377E-09  1.61578558E-09  1.54632039E-09  4.79291512E-09  3.36525096E-04  6.90407946E-04  9.78659604E-04  3.74927446E-04  3.48712200E-04  9.57849985E-04  8.50549126E-04
      5.02829841E-05  2.29980008E-04  4.35714319E-04  2.74713129E-04  2.14961377E-04  2.04214499E-04  1.38222698E-04  2.20386626E-04  5.24367126E-04  4.72492028E-04  5.91044611E-04  1.84619286E-04  5.55507901E-05  5.04085972E-08  5.11674867E-09  1.01486728E-09  5.61095111E-10  2.42721476E-09  2.01447275E-04  2.74111187E-04       0.00118209  2.09335404E-04  1.81316920E-04  3.94317158E-04  3.69099627E-04
      3.06089435E-05  1.39336607E-04  2.06533346E-04  1.07672081E-04  8.54247794E-05  2.42080652E-04  2.47604202E-04  3.32187553E-04  5.38056289E-04  5.36095328E-04  4.50884221E-04  2.03266261E-04  7.17859411E-05  1.66651501E-08  5.58249493E-09  1.12370043E-09  3.55362718E-10  1.38613502E-09  1.39480974E-04  1.80787098E-04       0.00120604  1.70167529E-04  1.56267618E-04  1.96766388E-04  1.87417690E-04
      3.20038322E-05  1.04816296E-04  1.33430207E-04  5.70748635E-05  5.24221942E-05  2.06588566E-04  2.24433639E-04  2.39825690E-07  2.91999531E-04  2.84588939E-08  2.00374275E-08  6.56570320E-08  7.53383340E-05  2.01135265E-08  8.47918819E-09  1.65628597E-09  5.17162918E-10  1.62878787E-09       0.00174677       0.00655168       0.00103938  1.94605195E-04  1.49076520E-04  1.48324141E-04  2.27929873E-04
      6.92024735E-05  1.40961864E-04  1.60213359E-04  4.21656793E-05  4.45240024E-05  1.23879807E-04  7.90246913E-05  6.78010509E-08  4.34927190E-08  2.15208800E-08  2.00127120E-08  2.15445850E-08  5.70981517E-05  2.77555354E-08  6.92391029E-09  2.04926472E-09  9.00268949E-10  2.03221289E-09  7.74064560E-04       0.00415660  7.26438968E-04  2.58959024E-04  1.66917026E-04  1.48180288E-04  2.93111550E-04
      2.46728461E-04  4.90976702E-04  3.89649862E-04  7.71035686E-05  5.92910290E-05  1.02558317E-04  2.91919572E-08  2.50301610E-08  2.93297232E-08  2.00364831E-08  1.51641622E-08  1.39770581E-08  6.30266450E-05  1.27214025E-08  4.49216859E-09  2.82119356E-09  1.29508894E-09  4.03854717E-09  2.15142846E-04       0.00135931  6.08455623E-04  3.21412156E-04  2.36967026E-04  1.63173237E-04  2.54009306E-04
      6.77215223E-04       0.00168657  8.38473170E-04  1.88347586E-04  1.22440958E-04  1.37338475E-04  8.91026290E-09  1.22972561E-08  1.82585810E-08  1.44842983E-08  1.07749798E-08  9.50492370E-09  2.54498453E-08  5.56964579E-09  2.30817974E-09  2.87091700E-09  1.93441160E-09  1.28692130E-08  1.98442381E-04  2.79852030E-04  2.69326739E-04  3.75185892E-04  2.96403526E-04  2.21678477E-04  2.61040124E-04
           0.00152471       0.00485807       0.00171947  3.59313741E-04  1.53206663E-04  1.01608936E-04  3.81177974E-09  9.16041758E-09  1.34648407E-08  1.25076520E-08  8.28818074E-09  4.81502752E-09  5.96191029E-09  2.10770836E-09  1.35318090E-09  1.46467100E-09  2.32273777E-09  6.92366725E-05  1.25202858E-04  7.16421374E-05  7.37642215E-05  2.62418476E-04  4.36323354E-04  4.84488557E-04  3.24370656E-04
           0.00270421       0.00852721       0.00219411  6.37719760E-04  1.94606855E-04  1.08136604E-04  5.65529550E-09  9.23870610E-09  4.70954150E-08  4.83066142E-08  7.73805266E-09  4.08878205E-09  4.60773232E-09  1.49922347E-09  9.20349922E-10  7.27687378E-10  1.90146791E-09  8.49274000E-05  8.69467377E-05  3.17387933E-05  3.95959037E-05  2.07341309E-04  7.48826458E-04  8.83517167E-04  4.32544894E-04
           0.00281812       0.00571558  8.98141348E-04  3.82439000E-04  2.43907271E-04  2.11442706E-04  1.72725509E-08  5.74139365E-08  5.45754942E-04  2.69503423E-04  1.77319542E-08  6.65808591E-09  5.22522377E-09  2.52740088E-09  4.06345375E-09  5.87700518E-09  2.81189039E-09  6.89862061E-05  6.70990249E-05  3.33055533E-05  3.99504053E-05  2.74508390E-04       0.00150761       0.00159273  5.81381983E-04
      5.07924706E-09  1.28849751E-09  2.31805463E-04  2.08676261E-04  2.72150503E-04  3.46397842E-04  3.77611311E-04  3.83128010E-04  5.92710281E-04  4.82602723E-04  1.56887145E-07  1.86311739E-08  1.09404434E-08  4.07104893E-05  1.96358165E-04  2.88380238E-04  7.51614724E-09  5.20915116E-05  6.88633260E-05  4.91463220E-05  7.67284827E-05  3.91324725E-04       0.00196808       0.00200783  7.55217742E-04
      4.04165458E-09  1.87849293E-09  6.01636455E-09  2.29792361E-04  5.36380539E-04  5.03133053E-04  6.62793516E-04  3.82046151E-04  5.38396144E-04  5.37841974E-04  3.12854692E-04  3.13981173E-08  5.79981797E-08  7.51649410E-05  2.83095769E-04  3.18317739E-04  1.83787620E-08  6.06592342E-05  7.81913883E-05  5.79629229E-05  8.24385245E-05  4.12575034E-04       0.00167769       0.00194681  7.77663212E-04
      1.16650495E-08  3.86650011E-09  2.82942468E-08  5.99857101E-04  9.47315547E-04  9.45667427E-04  9.80908380E-04  4.11443661E-04  5.65926056E-04  6.23202767E-04  4.58485946E-04  1.35592273E-04  8.34273040E-05  6.25811126E-05  1.90875647E-04  1.69473111E-08  4.71760832E-05  5.68394645E-05  9.25499026E-05  8.35916919E-05  1.13077726E-04  3.83975723E-04       0.00121757       0.00121193  6.46548449E-04
      1.64092865E-08  6.28512418E-09  1.53648427E-04  9.82703104E-04       0.00127307       0.00136284  9.58224116E-04  5.51702190E-04  9.07268636E-04  7.69317518E-04  5.83755234E-04  1.11532196E-04  1.12223003E-04  7.75088770E-05  5.99636286E-05  6.52611557E-05  5.88683633E-05  8.45141076E-05  1.22292931E-04  1.24231161E-04  1.95190748E-04  3.60266797E-04  7.55449414E-04  6.99431537E-04  3.87991500E-04