# File generated by Flopy version 3.9.1 on 06/24/2025 at 08:50:04.
BEGIN options
  XORIGIN       0.00000000
  YORIGIN       0.00000000
  ANGROT       0.00000000
END options

BEGIN dimensions
  NLAY  25
  NROW  25
  NCOL  25
END dimensions

BEGIN griddata
  delr
    CONSTANT       6.00000000
  delc
    CONSTANT       3.00000000
  top
    INTERNAL  FACTOR  1.0
        -7.50000000      -7.50000000      -7.50000000      -7.50000000      -7.50000000      -7.50000000      -7.50000000      -7.50000000      -7.50000000      -7.50000000      -7.50000000      -7.50000000      -7.50000000      -7.50000000      -7.50000000      -7.50000000      -7.50000000      -7.50000000      -7.50000000      -7.50000000      -7.50000000      -7.50000000      -7.50000000      -7.50000000      -7.50000000
        -7.50000000      -7.50000000      -7.50000000      -7.50000000      -7.50000000      -7.50000000      -7.50000000      -7.50000000      -7.50000000      -7.50000000      -7.50000000      -7.50000000      -7.50000000      -7.50000000      -7.50000000      -7.50000000      -7.50000000      -7.50000000      -7.50000000      -7.50000000      -7.50000000      -7.50000000      -7.50000000      -7.50000000      -7.50000000
        -7.50000000      -7.50000000      -7.50000000      -7.50000000      -7.50000000      -7.50000000      -7.50000000      -7.50000000      -7.50000000      -7.50000000      -7.50000000      -7.50000000      -7.50000000      -7.50000000      -7.50000000      -7.50000000      -7.50000000      -7.50000000      -7.50000000      -7.50000000      -7.50000000      -7.50000000      -7.50000000      -7.50000000      -7.50000000
        -7.50000000      -7.50000000      -7.50000000      -7.50000000      -7.50000000      -7.50000000      -7.50000000      -7.50000000      -7.50000000      -7.50000000      -7.50000000      -7.50000000      -7.50000000      -7.50000000      -7.50000000      -7.50000000      -7.50000000      -7.50000000      -7.50000000      -7.50000000      -7.50000000      -7.50000000      -7.50000000      -7.50000000      -7.50000000
        -7.50000000      -7.50000000      -7.50000000      -7.50000000      -7.50000000      -7.50000000      -7.50000000      -7.50000000      -7.50000000      -7.50000000      -7.50000000      -7.50000000      -7.50000000      -7.50000000      -7.50000000      -7.50000000      -7.50000000      -7.50000000      -7.50000000      -7.50000000      -7.50000000      -7.50000000      -7.50000000      -7.50000000      -7.50000000
        -7.50000000      -7.50000000      -7.50000000      -7.50000000      -7.50000000      -7.50000000      -7.50000000      -7.50000000      -7.50000000      -7.50000000      -7.50000000      -7.50000000      -7.50000000      -7.50000000      -7.50000000      -7.50000000      -7.50000000      -7.50000000      -7.50000000      -7.50000000      -7.50000000      -7.50000000      -7.50000000      -7.50000000      -7.50000000
        -7.50000000      -7.50000000      -7.50000000      -7.50000000      -7.50000000      -7.50000000      -7.50000000      -7.50000000      -7.50000000      -7.50000000      -7.50000000      -7.50000000      -7.50000000      -7.50000000      -7.50000000      -7.50000000      -7.50000000      -7.50000000      -7.50000000      -7.50000000      -7.50000000      -7.50000000      -7.50000000      -7.50000000      -7.50000000
        -7.50000000      -7.50000000      -7.50000000      -7.50000000      -7.50000000      -7.50000000      -7.50000000      -7.50000000      -7.50000000      -7.50000000      -7.50000000      -7.50000000      -7.50000000      -7.50000000      -7.50000000      -7.50000000      -7.50000000      -7.50000000      -7.50000000      -7.50000000      -7.50000000      -7.50000000      -7.50000000      -7.50000000      -7.50000000
        -7.50000000      -7.50000000      -7.50000000      -7.50000000      -7.50000000      -7.50000000      -7.50000000      -7.50000000      -7.50000000      -7.50000000      -7.50000000      -7.50000000      -7.50000000      -7.50000000      -7.50000000      -7.50000000      -7.50000000      -7.50000000      -7.50000000      -7.50000000      -7.50000000      -7.50000000      -7.50000000      -7.50000000      -7.50000000
        -7.50000000      -7.50000000      -7.50000000      -7.50000000      -7.50000000      -7.50000000      -7.50000000      -7.50000000      -7.50000000      -7.50000000      -7.50000000      -7.50000000      -7.50000000      -7.50000000      -7.50000000      -7.50000000      -7.50000000      -7.50000000      -7.50000000      -7.50000000      -7.50000000      -7.50000000      -7.50000000      -7.50000000      -7.50000000
        -7.50000000      -7.50000000      -7.50000000      -7.50000000      -7.50000000      -7.50000000      -7.50000000      -7.50000000      -7.50000000      -7.50000000      -7.50000000      -7.50000000      -7.50000000      -7.50000000      -7.50000000      -7.50000000      -7.50000000      -7.50000000      -7.50000000      -7.50000000      -7.50000000      -7.50000000      -7.50000000      -7.50000000      -7.50000000
        -7.50000000      -7.50000000      -7.50000000      -7.50000000      -7.50000000      -7.50000000      -7.50000000      -7.50000000      -7.50000000      -7.50000000      -7.50000000      -7.50000000      -7.50000000      -7.50000000      -7.50000000      -7.50000000      -7.50000000      -7.50000000      -7.50000000      -7.50000000      -7.50000000      -7.50000000      -7.50000000      -7.50000000      -7.50000000
        -7.50000000      -7.50000000      -7.50000000      -7.50000000      -7.50000000      -7.50000000      -7.50000000      -7.50000000      -7.50000000      -7.50000000      -7.50000000      -7.50000000      -7.50000000      -7.50000000      -7.50000000      -7.50000000      -7.50000000      -7.50000000      -7.50000000      -7.50000000      -7.50000000      -7.50000000      -7.50000000      -7.50000000      -7.50000000
        -7.50000000      -7.50000000      -7.50000000      -7.50000000      -7.50000000      -7.50000000      -7.50000000      -7.50000000      -7.50000000      -7.50000000      -7.50000000      -7.50000000      -7.50000000      -7.50000000      -7.50000000      -7.50000000      -7.50000000      -7.50000000      -7.50000000      -7.50000000      -7.50000000      -7.50000000      -7.50000000      -7.50000000      -7.50000000
        -7.50000000      -7.50000000      -7.50000000      -7.50000000      -7.50000000      -7.50000000      -7.50000000      -7.50000000      -7.50000000      -7.50000000      -7.50000000      -7.50000000      -7.50000000      -7.50000000      -7.50000000      -7.50000000      -7.50000000      -7.50000000      -7.50000000      -7.50000000      -7.50000000      -7.50000000      -7.50000000      -7.50000000      -7.50000000
        -7.50000000      -7.50000000      -7.50000000      -7.50000000      -7.50000000      -7.50000000      -7.50000000      -7.50000000      -7.50000000      -7.50000000      -7.50000000      -7.50000000      -7.50000000      -7.50000000      -7.50000000      -7.50000000      -7.50000000      -7.50000000      -7.50000000      -7.50000000      -7.50000000      -7.50000000      -7.50000000      -7.50000000      -7.50000000
        -7.50000000      -7.50000000      -7.50000000      -7.50000000      -7.50000000      -7.50000000      -7.50000000      -7.50000000      -7.50000000      -7.50000000      -7.50000000      -7.50000000      -7.50000000      -7.50000000      -7.50000000      -7.50000000      -7.50000000      -7.50000000      -7.50000000      -7.50000000      -7.50000000      -7.50000000      -7.50000000      -7.50000000      -7.50000000
        -7.50000000      -7.50000000      -7.50000000      -7.50000000      -7.50000000      -7.50000000      -7.50000000      -7.50000000      -7.50000000      -7.50000000      -7.50000000      -7.50000000      -7.50000000      -7.50000000      -7.50000000      -7.50000000      -7.50000000      -7.50000000      -7.50000000      -7.50000000      -7.50000000      -7.50000000      -7.50000000      -7.50000000      -7.50000000
        -7.50000000      -7.50000000      -7.50000000      -7.50000000      -7.50000000      -7.50000000      -7.50000000      -7.50000000      -7.50000000      -7.50000000      -7.50000000      -7.50000000      -7.50000000      -7.50000000      -7.50000000      -7.50000000      -7.50000000      -7.50000000      -7.50000000      -7.50000000      -7.50000000      -7.50000000      -7.50000000      -7.50000000      -7.50000000
        -7.50000000      -7.50000000      -7.50000000      -7.50000000      -7.50000000      -7.50000000      -7.50000000      -7.50000000      -7.50000000      -7.50000000      -7.50000000      -7.50000000      -7.50000000      -7.50000000      -7.50000000      -7.50000000      -7.50000000      -7.50000000      -7.50000000      -7.50000000      -7.50000000      -7.50000000      -7.50000000      -7.50000000      -7.50000000
        -7.50000000      -7.50000000      -7.50000000      -7.50000000      -7.50000000      -7.50000000      -7.50000000      -7.50000000      -7.50000000      -7.50000000      -7.50000000      -7.50000000      -7.50000000      -7.50000000      -7.50000000      -7.50000000      -7.50000000      -7.50000000      -7.50000000      -7.50000000      -7.50000000      -7.50000000      -7.50000000      -7.50000000      -7.50000000
        -7.50000000      -7.50000000      -7.50000000      -7.50000000      -7.50000000      -7.50000000      -7.50000000      -7.50000000      -7.50000000      -7.50000000      -7.50000000      -7.50000000      -7.50000000      -7.50000000      -7.50000000      -7.50000000      -7.50000000      -7.50000000      -7.50000000      -7.50000000      -7.50000000      -7.50000000      -7.50000000      -7.50000000      -7.50000000
        -7.50000000      -7.50000000      -7.50000000      -7.50000000      -7.50000000      -7.50000000      -7.50000000      -7.50000000      -7.50000000      -7.50000000      -7.50000000      -7.50000000      -7.50000000      -7.50000000      -7.50000000      -7.50000000      -7.50000000      -7.50000000      -7.50000000      -7.50000000      -7.50000000      -7.50000000      -7.50000000      -7.50000000      -7.50000000
        -7.50000000      -7.50000000      -7.50000000      -7.50000000      -7.50000000      -7.50000000      -7.50000000      -7.50000000      -7.50000000      -7.50000000      -7.50000000      -7.50000000      -7.50000000      -7.50000000      -7.50000000      -7.50000000      -7.50000000      -7.50000000      -7.50000000      -7.50000000      -7.50000000      -7.50000000      -7.50000000      -7.50000000      -7.50000000
        -7.50000000      -7.50000000      -7.50000000      -7.50000000      -7.50000000      -7.50000000      -7.50000000      -7.50000000      -7.50000000      -7.50000000      -7.50000000      -7.50000000      -7.50000000      -7.50000000      -7.50000000      -7.50000000      -7.50000000      -7.50000000      -7.50000000      -7.50000000      -7.50000000      -7.50000000      -7.50000000      -7.50000000      -7.50000000
  botm  LAYERED
    INTERNAL  FACTOR  1.0
          -7.80000000      -7.80000000      -7.80000000      -7.80000000      -7.80000000      -7.80000000      -7.80000000      -7.80000000      -7.80000000      -7.80000000      -7.80000000      -7.80000000      -7.80000000      -7.80000000      -7.80000000      -7.80000000      -7.80000000      -7.80000000      -7.80000000      -7.80000000      -7.80000000      -7.80000000      -7.80000000      -7.80000000      -7.80000000
          -7.80000000      -7.80000000      -7.80000000      -7.80000000      -7.80000000      -7.80000000      -7.80000000      -7.80000000      -7.80000000      -7.80000000      -7.80000000      -7.80000000      -7.80000000      -7.80000000      -7.80000000      -7.80000000      -7.80000000      -7.80000000      -7.80000000      -7.80000000      -7.80000000      -7.80000000      -7.80000000      -7.80000000      -7.80000000
          -7.80000000      -7.80000000      -7.80000000      -7.80000000      -7.80000000      -7.80000000      -7.80000000      -7.80000000      -7.80000000      -7.80000000      -7.80000000      -7.80000000      -7.80000000      -7.80000000      -7.80000000      -7.80000000      -7.80000000      -7.80000000      -7.80000000      -7.80000000      -7.80000000      -7.80000000      -7.80000000      -7.80000000      -7.80000000
          -7.80000000      -7.80000000      -7.80000000      -7.80000000      -7.80000000      -7.80000000      -7.80000000      -7.80000000      -7.80000000      -7.80000000      -7.80000000      -7.80000000      -7.80000000      -7.80000000      -7.80000000      -7.80000000      -7.80000000      -7.80000000      -7.80000000      -7.80000000      -7.80000000      -7.80000000      -7.80000000      -7.80000000      -7.80000000
          -7.80000000      -7.80000000      -7.80000000      -7.80000000      -7.80000000      -7.80000000      -7.80000000      -7.80000000      -7.80000000      -7.80000000      -7.80000000      -7.80000000      -7.80000000      -7.80000000      -7.80000000      -7.80000000      -7.80000000      -7.80000000      -7.80000000      -7.80000000      -7.80000000      -7.80000000      -7.80000000      -7.80000000      -7.80000000
          -7.80000000      -7.80000000      -7.80000000      -7.80000000      -7.80000000      -7.80000000      -7.80000000      -7.80000000      -7.80000000      -7.80000000      -7.80000000      -7.80000000      -7.80000000      -7.80000000      -7.80000000      -7.80000000      -7.80000000      -7.80000000      -7.80000000      -7.80000000      -7.80000000      -7.80000000      -7.80000000      -7.80000000      -7.80000000
          -7.80000000      -7.80000000      -7.80000000      -7.80000000      -7.80000000      -7.80000000      -7.80000000      -7.80000000      -7.80000000      -7.80000000      -7.80000000      -7.80000000      -7.80000000      -7.80000000      -7.80000000      -7.80000000      -7.80000000      -7.80000000      -7.80000000      -7.80000000      -7.80000000      -7.80000000      -7.80000000      -7.80000000      -7.80000000
          -7.80000000      -7.80000000      -7.80000000      -7.80000000      -7.80000000      -7.80000000      -7.80000000      -7.80000000      -7.80000000      -7.80000000      -7.80000000      -7.80000000      -7.80000000      -7.80000000      -7.80000000      -7.80000000      -7.80000000      -7.80000000      -7.80000000      -7.80000000      -7.80000000      -7.80000000      -7.80000000      -7.80000000      -7.80000000
          -7.80000000      -7.80000000      -7.80000000      -7.80000000      -7.80000000      -7.80000000      -7.80000000      -7.80000000      -7.80000000      -7.80000000      -7.80000000      -7.80000000      -7.80000000      -7.80000000      -7.80000000      -7.80000000      -7.80000000      -7.80000000      -7.80000000      -7.80000000      -7.80000000      -7.80000000      -7.80000000      -7.80000000      -7.80000000
          -7.80000000      -7.80000000      -7.80000000      -7.80000000      -7.80000000      -7.80000000      -7.80000000      -7.80000000      -7.80000000      -7.80000000      -7.80000000      -7.80000000      -7.80000000      -7.80000000      -7.80000000      -7.80000000      -7.80000000      -7.80000000      -7.80000000      -7.80000000      -7.80000000      -7.80000000      -7.80000000      -7.80000000      -7.80000000
          -7.80000000      -7.80000000      -7.80000000      -7.80000000      -7.80000000      -7.80000000      -7.80000000      -7.80000000      -7.80000000      -7.80000000      -7.80000000      -7.80000000      -7.80000000      -7.80000000      -7.80000000      -7.80000000      -7.80000000      -7.80000000      -7.80000000      -7.80000000      -7.80000000      -7.80000000      -7.80000000      -7.80000000      -7.80000000
          -7.80000000      -7.80000000      -7.80000000      -7.80000000      -7.80000000      -7.80000000      -7.80000000      -7.80000000      -7.80000000      -7.80000000      -7.80000000      -7.80000000      -7.80000000      -7.80000000      -7.80000000      -7.80000000      -7.80000000      -7.80000000      -7.80000000      -7.80000000      -7.80000000      -7.80000000      -7.80000000      -7.80000000      -7.80000000
          -7.80000000      -7.80000000      -7.80000000      -7.80000000      -7.80000000      -7.80000000      -7.80000000      -7.80000000      -7.80000000      -7.80000000      -7.80000000      -7.80000000      -7.80000000      -7.80000000      -7.80000000      -7.80000000      -7.80000000      -7.80000000      -7.80000000      -7.80000000      -7.80000000      -7.80000000      -7.80000000      -7.80000000      -7.80000000
          -7.80000000      -7.80000000      -7.80000000      -7.80000000      -7.80000000      -7.80000000      -7.80000000      -7.80000000      -7.80000000      -7.80000000      -7.80000000      -7.80000000      -7.80000000      -7.80000000      -7.80000000      -7.80000000      -7.80000000      -7.80000000      -7.80000000      -7.80000000      -7.80000000      -7.80000000      -7.80000000      -7.80000000      -7.80000000
          -7.80000000      -7.80000000      -7.80000000      -7.80000000      -7.80000000      -7.80000000      -7.80000000      -7.80000000      -7.80000000      -7.80000000      -7.80000000      -7.80000000      -7.80000000      -7.80000000      -7.80000000      -7.80000000      -7.80000000      -7.80000000      -7.80000000      -7.80000000      -7.80000000      -7.80000000      -7.80000000      -7.80000000      -7.80000000
          -7.80000000      -7.80000000      -7.80000000      -7.80000000      -7.80000000      -7.80000000      -7.80000000      -7.80000000      -7.80000000      -7.80000000      -7.80000000      -7.80000000      -7.80000000      -7.80000000      -7.80000000      -7.80000000      -7.80000000      -7.80000000      -7.80000000      -7.80000000      -7.80000000      -7.80000000      -7.80000000      -7.80000000      -7.80000000
          -7.80000000      -7.80000000      -7.80000000      -7.80000000      -7.80000000      -7.80000000      -7.80000000      -7.80000000      -7.80000000      -7.80000000      -7.80000000      -7.80000000      -7.80000000      -7.80000000      -7.80000000      -7.80000000      -7.80000000      -7.80000000      -7.80000000      -7.80000000      -7.80000000      -7.80000000      -7.80000000      -7.80000000      -7.80000000
          -7.80000000      -7.80000000      -7.80000000      -7.80000000      -7.80000000      -7.80000000      -7.80000000      -7.80000000      -7.80000000      -7.80000000      -7.80000000      -7.80000000      -7.80000000      -7.80000000      -7.80000000      -7.80000000      -7.80000000      -7.80000000      -7.80000000      -7.80000000      -7.80000000      -7.80000000      -7.80000000      -7.80000000      -7.80000000
          -7.80000000      -7.80000000      -7.80000000      -7.80000000      -7.80000000      -7.80000000      -7.80000000      -7.80000000      -7.80000000      -7.80000000      -7.80000000      -7.80000000      -7.80000000      -7.80000000      -7.80000000      -7.80000000      -7.80000000      -7.80000000      -7.80000000      -7.80000000      -7.80000000      -7.80000000      -7.80000000      -7.80000000      -7.80000000
          -7.80000000      -7.80000000      -7.80000000      -7.80000000      -7.80000000      -7.80000000      -7.80000000      -7.80000000      -7.80000000      -7.80000000      -7.80000000      -7.80000000      -7.80000000      -7.80000000      -7.80000000      -7.80000000      -7.80000000      -7.80000000      -7.80000000      -7.80000000      -7.80000000      -7.80000000      -7.80000000      -7.80000000      -7.80000000
          -7.80000000      -7.80000000      -7.80000000      -7.80000000      -7.80000000      -7.80000000      -7.80000000      -7.80000000      -7.80000000      -7.80000000      -7.80000000      -7.80000000      -7.80000000      -7.80000000      -7.80000000      -7.80000000      -7.80000000      -7.80000000      -7.80000000      -7.80000000      -7.80000000      -7.80000000      -7.80000000      -7.80000000      -7.80000000
          -7.80000000      -7.80000000      -7.80000000      -7.80000000      -7.80000000      -7.80000000      -7.80000000      -7.80000000      -7.80000000      -7.80000000      -7.80000000      -7.80000000      -7.80000000      -7.80000000      -7.80000000      -7.80000000      -7.80000000      -7.80000000      -7.80000000      -7.80000000      -7.80000000      -7.80000000      -7.80000000      -7.80000000      -7.80000000
          -7.80000000      -7.80000000      -7.80000000      -7.80000000      -7.80000000      -7.80000000      -7.80000000      -7.80000000      -7.80000000      -7.80000000      -7.80000000      -7.80000000      -7.80000000      -7.80000000      -7.80000000      -7.80000000      -7.80000000      -7.80000000      -7.80000000      -7.80000000      -7.80000000      -7.80000000      -7.80000000      -7.80000000      -7.80000000
          -7.80000000      -7.80000000      -7.80000000      -7.80000000      -7.80000000      -7.80000000      -7.80000000      -7.80000000      -7.80000000      -7.80000000      -7.80000000      -7.80000000      -7.80000000      -7.80000000      -7.80000000      -7.80000000      -7.80000000      -7.80000000      -7.80000000      -7.80000000      -7.80000000      -7.80000000      -7.80000000      -7.80000000      -7.80000000
          -7.80000000      -7.80000000      -7.80000000      -7.80000000      -7.80000000      -7.80000000      -7.80000000      -7.80000000      -7.80000000      -7.80000000      -7.80000000      -7.80000000      -7.80000000      -7.80000000      -7.80000000      -7.80000000      -7.80000000      -7.80000000      -7.80000000      -7.80000000      -7.80000000      -7.80000000      -7.80000000      -7.80000000      -7.80000000
    INTERNAL  FACTOR  1.0
          -8.10000000      -8.10000000      -8.10000000      -8.10000000      -8.10000000      -8.10000000      -8.10000000      -8.10000000      -8.10000000      -8.10000000      -8.10000000      -8.10000000      -8.10000000      -8.10000000      -8.10000000      -8.10000000      -8.10000000      -8.10000000      -8.10000000      -8.10000000      -8.10000000      -8.10000000      -8.10000000      -8.10000000      -8.10000000
          -8.10000000      -8.10000000      -8.10000000      -8.10000000      -8.10000000      -8.10000000      -8.10000000      -8.10000000      -8.10000000      -8.10000000      -8.10000000      -8.10000000      -8.10000000      -8.10000000      -8.10000000      -8.10000000      -8.10000000      -8.10000000      -8.10000000      -8.10000000      -8.10000000      -8.10000000      -8.10000000      -8.10000000      -8.10000000
          -8.10000000      -8.10000000      -8.10000000      -8.10000000      -8.10000000      -8.10000000      -8.10000000      -8.10000000      -8.10000000      -8.10000000      -8.10000000      -8.10000000      -8.10000000      -8.10000000      -8.10000000      -8.10000000      -8.10000000      -8.10000000      -8.10000000      -8.10000000      -8.10000000      -8.10000000      -8.10000000      -8.10000000      -8.10000000
          -8.10000000      -8.10000000      -8.10000000      -8.10000000      -8.10000000      -8.10000000      -8.10000000      -8.10000000      -8.10000000      -8.10000000      -8.10000000      -8.10000000      -8.10000000      -8.10000000      -8.10000000      -8.10000000      -8.10000000      -8.10000000      -8.10000000      -8.10000000      -8.10000000      -8.10000000      -8.10000000      -8.10000000      -8.10000000
          -8.10000000      -8.10000000      -8.10000000      -8.10000000      -8.10000000      -8.10000000      -8.10000000      -8.10000000      -8.10000000      -8.10000000      -8.10000000      -8.10000000      -8.10000000      -8.10000000      -8.10000000      -8.10000000      -8.10000000      -8.10000000      -8.10000000      -8.10000000      -8.10000000      -8.10000000      -8.10000000      -8.10000000      -8.10000000
          -8.10000000      -8.10000000      -8.10000000      -8.10000000      -8.10000000      -8.10000000      -8.10000000      -8.10000000      -8.10000000      -8.10000000      -8.10000000      -8.10000000      -8.10000000      -8.10000000      -8.10000000      -8.10000000      -8.10000000      -8.10000000      -8.10000000      -8.10000000      -8.10000000      -8.10000000      -8.10000000      -8.10000000      -8.10000000
          -8.10000000      -8.10000000      -8.10000000      -8.10000000      -8.10000000      -8.10000000      -8.10000000      -8.10000000      -8.10000000      -8.10000000      -8.10000000      -8.10000000      -8.10000000      -8.10000000      -8.10000000      -8.10000000      -8.10000000      -8.10000000      -8.10000000      -8.10000000      -8.10000000      -8.10000000      -8.10000000      -8.10000000      -8.10000000
          -8.10000000      -8.10000000      -8.10000000      -8.10000000      -8.10000000      -8.10000000      -8.10000000      -8.10000000      -8.10000000      -8.10000000      -8.10000000      -8.10000000      -8.10000000      -8.10000000      -8.10000000      -8.10000000      -8.10000000      -8.10000000      -8.10000000      -8.10000000      -8.10000000      -8.10000000      -8.10000000      -8.10000000      -8.10000000
          -8.10000000      -8.10000000      -8.10000000      -8.10000000      -8.10000000      -8.10000000      -8.10000000      -8.10000000      -8.10000000      -8.10000000      -8.10000000      -8.10000000      -8.10000000      -8.10000000      -8.10000000      -8.10000000      -8.10000000      -8.10000000      -8.10000000      -8.10000000      -8.10000000      -8.10000000      -8.10000000      -8.10000000      -8.10000000
          -8.10000000      -8.10000000      -8.10000000      -8.10000000      -8.10000000      -8.10000000      -8.10000000      -8.10000000      -8.10000000      -8.10000000      -8.10000000      -8.10000000      -8.10000000      -8.10000000      -8.10000000      -8.10000000      -8.10000000      -8.10000000      -8.10000000      -8.10000000      -8.10000000      -8.10000000      -8.10000000      -8.10000000      -8.10000000
          -8.10000000      -8.10000000      -8.10000000      -8.10000000      -8.10000000      -8.10000000      -8.10000000      -8.10000000      -8.10000000      -8.10000000      -8.10000000      -8.10000000      -8.10000000      -8.10000000      -8.10000000      -8.10000000      -8.10000000      -8.10000000      -8.10000000      -8.10000000      -8.10000000      -8.10000000      -8.10000000      -8.10000000      -8.10000000
          -8.10000000      -8.10000000      -8.10000000      -8.10000000      -8.10000000      -8.10000000      -8.10000000      -8.10000000      -8.10000000      -8.10000000      -8.10000000      -8.10000000      -8.10000000      -8.10000000      -8.10000000      -8.10000000      -8.10000000      -8.10000000      -8.10000000      -8.10000000      -8.10000000      -8.10000000      -8.10000000      -8.10000000      -8.10000000
          -8.10000000      -8.10000000      -8.10000000      -8.10000000      -8.10000000      -8.10000000      -8.10000000      -8.10000000      -8.10000000      -8.10000000      -8.10000000      -8.10000000      -8.10000000      -8.10000000      -8.10000000      -8.10000000      -8.10000000      -8.10000000      -8.10000000      -8.10000000      -8.10000000      -8.10000000      -8.10000000      -8.10000000      -8.10000000
          -8.10000000      -8.10000000      -8.10000000      -8.10000000      -8.10000000      -8.10000000      -8.10000000      -8.10000000      -8.10000000      -8.10000000      -8.10000000      -8.10000000      -8.10000000      -8.10000000      -8.10000000      -8.10000000      -8.10000000      -8.10000000      -8.10000000      -8.10000000      -8.10000000      -8.10000000      -8.10000000      -8.10000000      -8.10000000
          -8.10000000      -8.10000000      -8.10000000      -8.10000000      -8.10000000      -8.10000000      -8.10000000      -8.10000000      -8.10000000      -8.10000000      -8.10000000      -8.10000000      -8.10000000      -8.10000000      -8.10000000      -8.10000000      -8.10000000      -8.10000000      -8.10000000      -8.10000000      -8.10000000      -8.10000000      -8.10000000      -8.10000000      -8.10000000
          -8.10000000      -8.10000000      -8.10000000      -8.10000000      -8.10000000      -8.10000000      -8.10000000      -8.10000000      -8.10000000      -8.10000000      -8.10000000      -8.10000000      -8.10000000      -8.10000000      -8.10000000      -8.10000000      -8.10000000      -8.10000000      -8.10000000      -8.10000000      -8.10000000      -8.10000000      -8.10000000      -8.10000000      -8.10000000
          -8.10000000      -8.10000000      -8.10000000      -8.10000000      -8.10000000      -8.10000000      -8.10000000      -8.10000000      -8.10000000      -8.10000000      -8.10000000      -8.10000000      -8.10000000      -8.10000000      -8.10000000      -8.10000000      -8.10000000      -8.10000000      -8.10000000      -8.10000000      -8.10000000      -8.10000000      -8.10000000      -8.10000000      -8.10000000
          -8.10000000      -8.10000000      -8.10000000      -8.10000000      -8.10000000      -8.10000000      -8.10000000      -8.10000000      -8.10000000      -8.10000000      -8.10000000      -8.10000000      -8.10000000      -8.10000000      -8.10000000      -8.10000000      -8.10000000      -8.10000000      -8.10000000      -8.10000000      -8.10000000      -8.10000000      -8.10000000      -8.10000000      -8.10000000