# File generated by Flopy version 3.9.1 on 06/09/2025 at 13:00:12.
BEGIN options
END options

BEGIN griddata
  strt
    CONSTANT       1.00000000
END griddata

