# File generated by Flopy version 3.8.2 on 11/13/2024 at 16:34:31.
BEGIN options
  SAVE_FLOWS
  SAVE_SPECIFIC_DISCHARGE
END options

BEGIN griddata
  icelltype
    CONSTANT  0
  k  LAYERED
    INTERNAL  FACTOR  1.0
      1.00000000E-10  1.00000000E-10  1.00000000E-10
      1.00000000E-10  1.00000000E-10  1.00000000E-10
      1.00000000E-10  1.00000000E-10  1.00000000E-10
    INTERNAL  FACTOR  1.0
      1.00000000E-10  1.00000000E-10  1.00000000E-10
      1.00000000E-10  1.00000000E-10  1.00000000E-10
      1.00000000E-10  1.00000000E-10  1.00000000E-10
    INTERNAL  FACTOR  1.0
      1.00000000E-10  1.00000000E-10  1.00000000E-10
      1.00000000E-10  1.00000000E-10  1.00000000E-10
      1.00000000E-10  1.00000000E-10  1.00000000E-10
    INTERNAL  FACTOR  1.0
      1.00000000E-10  1.00000000E-10  1.00000000E-10
      1.00000000E-10  1.00000000E-10  1.00000000E-10
      1.00000000E-10  1.00000000E-10  1.00000000E-10
    INTERNAL  FACTOR  1.0
      1.00000000E-10  1.00000000E-10  1.00000000E-10
      1.00000000E-10  1.00000000E-10  1.00000000E-10
      1.00000000E-10  1.00000000E-10  1.00000000E-10
    INTERNAL  FACTOR  1.0
      1.00000000E-10  1.00000000E-10  1.00000000E-10
      1.00000000E-10  1.00000000E-10  1.00000000E-10
      1.00000000E-10  1.00000000E-10  1.00000000E-10
    INTERNAL  FACTOR  1.0
      1.00000000E-10  1.00000000E-10  1.00000000E-10
      1.00000000E-10  1.00000000E-10  1.00000000E-10
      1.00000000E-10  1.00000000E-10  1.00000000E-10
    INTERNAL  FACTOR  1.0
      1.00000000E-10  1.00000000E-10  1.00000000E-10
      1.00000000E-10  1.00000000E-10  1.00000000E-10
      1.00000000E-10  1.00000000E-10  1.00000000E-10
    INTERNAL  FACTOR  1.0
      1.00000000E-10  1.00000000E-10  1.00000000E-10
      1.00000000E-10  1.00000000E-10  1.00000000E-10
      1.00000000E-10  1.00000000E-10  1.00000000E-10
    INTERNAL  FACTOR  1.0
      1.00000000E-10  1.00000000E-10  1.00000000E-10
      1.00000000E-10  1.00000000E-10  1.00000000E-10
      1.00000000E-10  1.00000000E-10  1.00000000E-10
    INTERNAL  FACTOR  1.0
      1.00000000E-10  1.00000000E-10  1.00000000E-10
      1.00000000E-10  1.00000000E-10  1.00000000E-10
      1.00000000E-10  1.00000000E-10  1.00000000E-10
    INTERNAL  FACTOR  1.0
      1.00000000E-10  1.00000000E-10  1.00000000E-10
      1.00000000E-10  1.00000000E-10  1.00000000E-10
      1.00000000E-10  1.00000000E-10  1.00000000E-10
    INTERNAL  FACTOR  1.0
      1.00000000E-10  1.00000000E-10  1.00000000E-10
      1.00000000E-10  1.00000000E-10  1.00000000E-10
      1.00000000E-10  1.00000000E-10  1.00000000E-10
    INTERNAL  FACTOR  1.0
      1.00000000E-10  1.00000000E-10  1.00000000E-10
      1.00000000E-10  1.00000000E-10  1.00000000E-10
      1.00000000E-10  1.00000000E-10  1.00000000E-10
    INTERNAL  FACTOR  1.0
      1.00000000E-10  1.00000000E-10  1.00000000E-10
      1.00000000E-10  1.00000000E-10  1.00000000E-10
      1.00000000E-10  1.00000000E-10  1.00000000E-10
    INTERNAL  FACTOR  1.0
      1.00000000E-10  1.00000000E-10  1.00000000E-10
      1.00000000E-10  1.00000000E-10  1.00000000E-10
      1.00000000E-10  1.00000000E-10  1.00000000E-10
    INTERNAL  FACTOR  1.0
      1.00000000E-10  1.00000000E-10  1.00000000E-10
      1.00000000E-10  1.00000000E-10  1.00000000E-10
      1.00000000E-10  1.00000000E-10  1.00000000E-10
    INTERNAL  FACTOR  1.0
      1.00000000E-10  1.00000000E-10  1.00000000E-10
      1.00000000E-10  1.00000000E-10  1.00000000E-10
      1.00000000E-10  1.00000000E-10  1.00000000E-10
    INTERNAL  FACTOR  1.0
      1.00000000E-10  1.00000000E-10  1.00000000E-10
      1.00000000E-10  1.00000000E-10  1.00000000E-10
      1.00000000E-10  1.00000000E-10  1.00000000E-10
    INTERNAL  FACTOR  1.0
      1.00000000E-10  1.00000000E-10  1.00000000E-10
      1.00000000E-10  1.00000000E-10  1.00000000E-10
      1.00000000E-10  1.00000000E-10  1.00000000E-10
    INTERNAL  FACTOR  1.0
      1.00000000E-10  1.00000000E-10  1.00000000E-10
      1.00000000E-10  1.00000000E-10  1.00000000E-10
      1.00000000E-10  1.00000000E-10  1.00000000E-10
    INTERNAL  FACTOR  1.0
      1.00000000E-10  1.00000000E-10  1.00000000E-10
      1.00000000E-10  1.00000000E-10  1.00000000E-10
      1.00000000E-10  1.00000000E-10  1.00000000E-10
    INTERNAL  FACTOR  1.0
      1.00000000E-10  1.00000000E-10  1.00000000E-10
      1.00000000E-10  1.00000000E-10  1.00000000E-10
      1.00000000E-10  1.00000000E-10  1.00000000E-10
    INTERNAL  FACTOR  1.0
      1.00000000E-10  1.00000000E-10  1.00000000E-10
      1.00000000E-10  1.00000000E-10  1.00000000E-10
      1.00000000E-10  1.00000000E-10  1.00000000E-10
    INTERNAL  FACTOR  1.0
      1.00000000E-10  1.00000000E-10  1.00000000E-10
      1.00000000E-10  1.00000000E-10  1.00000000E-10
      1.00000000E-10  1.00000000E-10  1.00000000E-10
    INTERNAL  FACTOR  1.0
      1.00000000E-10  1.00000000E-10  1.00000000E-10
      1.00000000E-10  1.00000000E-10  1.00000000E-10
      1.00000000E-10  1.00000000E-10  1.00000000E-10
    INTERNAL  FACTOR  1.0
      1.00000000E-10  1.00000000E-10  1.00000000E-10
      1.00000000E-10  1.00000000E-10  1.00000000E-10
      1.00000000E-10  1.00000000E-10  1.00000000E-10
    INTERNAL  FACTOR  1.0
      1.00000000E-10  1.00000000E-10  1.00000000E-10
      1.00000000E-10  1.00000000E-10  1.00000000E-10
      1.00000000E-10  1.00000000E-10  1.00000000E-10
    INTERNAL  FACTOR  1.0
      1.00000000E-10  1.00000000E-10  1.00000000E-10
      1.00000000E-10  1.00000000E-10  1.00000000E-10
      1.00000000E-10  1.00000000E-10  1.00000000E-10
END griddata

