# File generated by Flopy version 3.8.2 on 11/13/2024 at 16:34:31.
BEGIN options
END options

BEGIN packages
  DIS6  keq.dis  dis
  CHD6  keq.chd  chd
  IC6  keq.ic  ic
  NPF6  keq.npf  npf
  OC6  keq.oc  oc
END packages

