# File generated by Flopy version 3.8.2 on 11/13/2024 at 16:34:31.
BEGIN options
  BUDGET  FILEOUT  keq.cbc
  HEAD  FILEOUT  keq.hds
END options

BEGIN period  1
  SAVE  BUDGET  LAST
END period  1

