# File generated by Flopy version 3.8.2 on 11/13/2024 at 16:34:31.
BEGIN options
END options

BEGIN griddata
  strt  LAYERED
    INTERNAL  FACTOR  1.0
           4.50000000       4.50000000       4.50000000
           2.25000000       2.25000000       2.25000000
           0.00000000       0.00000000       0.00000000
    INTERNAL  FACTOR  1.0
           4.50000000       4.50000000       4.50000000
           2.25000000       2.25000000       2.25000000
           0.00000000       0.00000000       0.00000000
    INTERNAL  FACTOR  1.0
           4.50000000       4.50000000       4.50000000
           2.25000000       2.25000000       2.25000000
           0.00000000       0.00000000       0.00000000
    INTERNAL  FACTOR  1.0
           4.50000000       4.50000000       4.50000000
           2.25000000       2.25000000       2.25000000
           0.00000000       0.00000000       0.00000000
    INTERNAL  FACTOR  1.0
           4.50000000       4.50000000       4.50000000
           2.25000000       2.25000000       2.25000000
           0.00000000       0.00000000       0.00000000
    INTERNAL  FACTOR  1.0
           4.50000000       4.50000000       4.50000000
           2.25000000       2.25000000       2.25000000
           0.00000000       0.00000000       0.00000000
    INTERNAL  FACTOR  1.0
           4.50000000       4.50000000       4.50000000
           2.25000000       2.25000000       2.25000000
           0.00000000       0.00000000       0.00000000
    INTERNAL  FACTOR  1.0
           4.50000000       4.50000000       4.50000000
           2.25000000       2.25000000       2.25000000
           0.00000000       0.00000000       0.00000000
    INTERNAL  FACTOR  1.0
           4.50000000       4.50000000       4.50000000
           2.25000000       2.25000000       2.25000000
           0.00000000       0.00000000       0.00000000
    INTERNAL  FACTOR  1.0
           4.50000000       4.50000000       4.50000000
           2.25000000       2.25000000       2.25000000
           0.00000000       0.00000000       0.00000000
    INTERNAL  FACTOR  1.0
           4.50000000       4.50000000       4.50000000
           2.25000000       2.25000000       2.25000000
           0.00000000       0.00000000       0.00000000
    INTERNAL  FACTOR  1.0
           4.50000000       4.50000000       4.50000000
           2.25000000       2.25000000       2.25000000
           0.00000000       0.00000000       0.00000000
    INTERNAL  FACTOR  1.0
           4.50000000       4.50000000       4.50000000
           2.25000000       2.25000000       2.25000000
           0.00000000       0.00000000       0.00000000
    INTERNAL  FACTOR  1.0
           4.50000000       4.50000000       4.50000000
           2.25000000       2.25000000       2.25000000
           0.00000000       0.00000000       0.00000000
    INTERNAL  FACTOR  1.0
           4.50000000       4.50000000       4.50000000
           2.25000000       2.25000000       2.25000000
           0.00000000       0.00000000       0.00000000
    INTERNAL  FACTOR  1.0
           4.50000000       4.50000000       4.50000000
           2.25000000       2.25000000       2.25000000
           0.00000000       0.00000000       0.00000000
    INTERNAL  FACTOR  1.0
           4.50000000       4.50000000       4.50000000
           2.25000000       2.25000000       2.25000000
           0.00000000       0.00000000       0.00000000
    INTERNAL  FACTOR  1.0
           4.50000000       4.50000000       4.50000000
           2.25000000       2.25000000       2.25000000
           0.00000000       0.00000000       0.00000000
    INTERNAL  FACTOR  1.0
           4.50000000       4.50000000       4.50000000
           2.25000000       2.25000000       2.25000000
           0.00000000       0.00000000       0.00000000
    INTERNAL  FACTOR  1.0
           4.50000000       4.50000000       4.50000000
           2.25000000       2.25000000       2.25000000
           0.00000000       0.00000000       0.00000000
    INTERNAL  FACTOR  1.0
           4.50000000       4.50000000       4.50000000
           2.25000000       2.25000000       2.25000000
           0.00000000       0.00000000       0.00000000
    INTERNAL  FACTOR  1.0
           4.50000000       4.50000000       4.50000000
           2.25000000       2.25000000       2.25000000
           0.00000000       0.00000000       0.00000000
    INTERNAL  FACTOR  1.0
           4.50000000       4.50000000       4.50000000
           2.25000000       2.25000000       2.25000000
           0.00000000       0.00000000       0.00000000
    INTERNAL  FACTOR  1.0
           4.50000000       4.50000000       4.50000000
           2.25000000       2.25000000       2.25000000
           0.00000000       0.00000000       0.00000000
    INTERNAL  FACTOR  1.0
           4.50000000       4.50000000       4.50000000
           2.25000000       2.25000000       2.25000000
           0.00000000       0.00000000       0.00000000
    INTERNAL  FACTOR  1.0
           4.50000000       4.50000000       4.50000000
           2.25000000       2.25000000       2.25000000
           0.00000000       0.00000000       0.00000000
    INTERNAL  FACTOR  1.0
           4.50000000       4.50000000       4.50000000
           2.25000000       2.25000000       2.25000000
           0.00000000       0.00000000       0.00000000
    INTERNAL  FACTOR  1.0
           4.50000000       4.50000000       4.50000000
           2.25000000       2.25000000       2.25000000
           0.00000000       0.00000000       0.00000000
    INTERNAL  FACTOR  1.0
           4.50000000       4.50000000       4.50000000
           2.25000000       2.25000000       2.25000000
           0.00000000       0.00000000       0.00000000
END griddata

