# File generated by Flopy version 3.8.2 on 11/13/2024 at 16:34:31.
BEGIN options
END options

BEGIN dimensions
  NLAY  29
  NROW  3
  NCOL  3
END dimensions

BEGIN griddata
  delr
    INTERNAL  FACTOR  1.0
         1.50000000       1.50000000       1.50000000
  delc
    INTERNAL  FACTOR  1.0
         1.50000000       1.50000000       1.50000000
  top
    INTERNAL  FACTOR  1.0
        -5.70002365      -5.70002365      -5.70002365
        -5.70002365      -5.70002365      -5.70002365
        -5.70002365      -5.70002365      -5.70002365
  botm  LAYERED
    INTERNAL  FACTOR  1.0
          -5.85002327      -5.85002327      -5.85002327
          -5.85002327      -5.85002327      -5.85002327
          -5.85002327      -5.85002327      -5.85002327
    INTERNAL  FACTOR  1.0
          -6.00002289      -6.00002289      -6.00002289
          -6.00002289      -6.00002289      -6.00002289
          -6.00002289      -6.00002289      -6.00002289
    INTERNAL  FACTOR  1.0
          -6.15002251      -6.15002251      -6.15002251
          -6.15002251      -6.15002251      -6.15002251
          -6.15002251      -6.15002251      -6.15002251
    INTERNAL  FACTOR  1.0
          -6.30002213      -6.30002213      -6.30002213
          -6.30002213      -6.30002213      -6.30002213
          -6.30002213      -6.30002213      -6.30002213
    INTERNAL  FACTOR  1.0
          -6.45002174      -6.45002174      -6.45002174
          -6.45002174      -6.45002174      -6.45002174
          -6.45002174      -6.45002174      -6.45002174
    INTERNAL  FACTOR  1.0
          -6.60002136      -6.60002136      -6.60002136
          -6.60002136      -6.60002136      -6.60002136
          -6.60002136      -6.60002136      -6.60002136
    INTERNAL  FACTOR  1.0
          -6.75002098      -6.75002098      -6.75002098
          -6.75002098      -6.75002098      -6.75002098
          -6.75002098      -6.75002098      -6.75002098
    INTERNAL  FACTOR  1.0
          -6.90002060      -6.90002060      -6.90002060
          -6.90002060      -6.90002060      -6.90002060
          -6.90002060      -6.90002060      -6.90002060
    INTERNAL  FACTOR  1.0
          -7.05002022      -7.05002022      -7.05002022
          -7.05002022      -7.05002022      -7.05002022
          -7.05002022      -7.05002022      -7.05002022
    INTERNAL  FACTOR  1.0
          -7.20001984      -7.20001984      -7.20001984
          -7.20001984      -7.20001984      -7.20001984
          -7.20001984      -7.20001984      -7.20001984
    INTERNAL  FACTOR  1.0
          -7.35001945      -7.35001945      -7.35001945
          -7.35001945      -7.35001945      -7.35001945
          -7.35001945      -7.35001945      -7.35001945
    INTERNAL  FACTOR  1.0
          -7.50001907      -7.50001907      -7.50001907
          -7.50001907      -7.50001907      -7.50001907
          -7.50001907      -7.50001907      -7.50001907
    INTERNAL  FACTOR  1.0
          -7.65001869      -7.65001869      -7.65001869
          -7.65001869      -7.65001869      -7.65001869
          -7.65001869      -7.65001869      -7.65001869
    INTERNAL  FACTOR  1.0
          -7.80001831      -7.80001831      -7.80001831
          -7.80001831      -7.80001831      -7.80001831
          -7.80001831      -7.80001831      -7.80001831
    INTERNAL  FACTOR  1.0
          -7.95001793      -7.95001793      -7.95001793
          -7.95001793      -7.95001793      -7.95001793
          -7.95001793      -7.95001793      -7.95001793
    INTERNAL  FACTOR  1.0
          -8.10001755      -8.10001755      -8.10001755
          -8.10001755      -8.10001755      -8.10001755
          -8.10001755      -8.10001755      -8.10001755
    INTERNAL  FACTOR  1.0
          -8.25001717      -8.25001717      -8.25001717
          -8.25001717      -8.25001717      -8.25001717
          -8.25001717      -8.25001717      -8.25001717
    INTERNAL  FACTOR  1.0
          -8.40001678      -8.40001678      -8.40001678
          -8.40001678      -8.40001678      -8.40001678
          -8.40001678      -8.40001678      -8.40001678
    INTERNAL  FACTOR  1.0
          -8.55001640      -8.55001640      -8.55001640
          -8.55001640      -8.55001640      -8.55001640
          -8.55001640      -8.55001640      -8.55001640
    INTERNAL  FACTOR  1.0
          -8.70001602      -8.70001602      -8.70001602
          -8.70001602      -8.70001602      -8.70001602
          -8.70001602      -8.70001602      -8.70001602
    INTERNAL  FACTOR  1.0
          -8.85001564      -8.85001564      -8.85001564
          -8.85001564      -8.85001564      -8.85001564
          -8.85001564      -8.85001564      -8.85001564
    INTERNAL  FACTOR  1.0
          -9.00001526      -9.00001526      -9.00001526
          -9.00001526      -9.00001526      -9.00001526
          -9.00001526      -9.00001526      -9.00001526
    INTERNAL  FACTOR  1.0
          -9.15001488      -9.15001488      -9.15001488
          -9.15001488      -9.15001488      -9.15001488
          -9.15001488      -9.15001488      -9.15001488
    INTERNAL  FACTOR  1.0
          -9.30001450      -9.30001450      -9.30001450
          -9.30001450      -9.30001450      -9.30001450
          -9.30001450      -9.30001450      -9.30001450
    INTERNAL  FACTOR  1.0
          -9.45001411      -9.45001411      -9.45001411
          -9.45001411      -9.45001411      -9.45001411
          -9.45001411      -9.45001411      -9.45001411
    INTERNAL  FACTOR  1.0
          -9.60001373      -9.60001373      -9.60001373
          -9.60001373      -9.60001373      -9.60001373
          -9.60001373      -9.60001373      -9.60001373
    INTERNAL  FACTOR  1.0
          -9.75001335      -9.75001335      -9.75001335
          -9.75001335      -9.75001335      -9.75001335
          -9.75001335      -9.75001335      -9.75001335
    INTERNAL  FACTOR  1.0
          -9.90001297      -9.90001297      -9.90001297
          -9.90001297      -9.90001297      -9.90001297
          -9.90001297      -9.90001297      -9.90001297
    INTERNAL  FACTOR  1.0
         -10.05001259     -10.05001259     -10.05001259
         -10.05001259     -10.05001259     -10.05001259
         -10.05001259     -10.05001259     -10.05001259
  idomain  LAYERED
    INTERNAL  FACTOR  1
      1  1  1
      1  1  1
      1  1  1
    INTERNAL  FACTOR  1
      1  1  1
      1  1  1
      1  1  1
    INTERNAL  FACTOR  1
      1  1  1
      1  1  1
      1  1  1
    INTERNAL  FACTOR  1
      1  1  1
      1  1  1
      1  1  1
    INTERNAL  FACTOR  1
      1  1  1
      1  1  1
      1  1  1
    INTERNAL  FACTOR  1
      1  1  1
      1  1  1
      1  1  1
    INTERNAL  FACTOR  1
      1  1  1
      1  1  1
      1  1  1
    INTERNAL  FACTOR  1
      1  1  1
      1  1  1
      1  1  1
    INTERNAL  FACTOR  1
      1  1  1
      1  1  1
      1  1  1
    INTERNAL  FACTOR  1
      1  1  1
      1  1  1
      1  1  1
    INTERNAL  FACTOR  1
      1  1  1
      1  1  1
      1  1  1
    INTERNAL  FACTOR  1
      1  1  1
      1  1  1
      1  1  1
    INTERNAL  FACTOR  1
      1  1  1
      1  1  1
      1  1  1
    INTERNAL  FACTOR  1
      1  1  1
      1  1  1
      1  1  1
    INTERNAL  FACTOR  1
      1  1  1
      1  1  1
      1  1  1
    INTERNAL  FACTOR  1
      1  1  1
      1  1  1
      1  1  1
    INTERNAL  FACTOR  1
      1  1  1
      1  1  1
      1  1  1
    INTERNAL  FACTOR  1
      1  1  1
      1  1  1
      1  1  1
    INTERNAL  FACTOR  1
      1  1  1
      1  1  1
      1  1  1
    INTERNAL  FACTOR  1
      1  1  1
      1  1  1
      1  1  1
    INTERNAL  FACTOR  1
      1  1  1
      1  1  1
      1  1  1
    INTERNAL  FACTOR  1
      1  1  1
      1  1  1
      1  1  1
    INTERNAL  FACTOR  1
      1  1  1
      1  1  1
      1  1  1
    INTERNAL  FACTOR  1
      1  1  1
      1  1  1
      1  1  1
    INTERNAL  FACTOR  1
      1  1  1
      1  1  1
      1  1  1
    INTERNAL  FACTOR  1
      1  1  1
      1  1  1
      1  1  1
    INTERNAL  FACTOR  1
      1  1  1
      1  1  1
      1  1  1
    INTERNAL  FACTOR  1
      1  1  1
      1  1  1
      1  1  1
    INTERNAL  FACTOR  1
      1  1  1
      1  1  1
      1  1  1
END griddata

