# File generated by Flopy version 3.8.2 on 11/13/2024 at 16:34:31.
BEGIN options
  COMPLEXITY  simple
END options

