# File generated by Flopy version 3.8.2 on 11/13/2024 at 16:34:31.
BEGIN options
  SAVE_FLOWS
END options

BEGIN dimensions
  MAXBOUND  230
END dimensions

BEGIN period  1
  1 1 1 4.50000000E+00
  1 3 1 0.00000000E+00
  2 1 1 4.50000000E+00
  2 3 1 0.00000000E+00
  3 1 1 4.50000000E+00
  3 3 1 0.00000000E+00
  4 1 1 4.50000000E+00
  4 3 1 0.00000000E+00
  5 1 1 4.50000000E+00
  5 3 1 0.00000000E+00
  6 1 1 4.50000000E+00
  6 3 1 0.00000000E+00
  7 1 1 4.50000000E+00
  7 3 1 0.00000000E+00
  8 1 1 4.50000000E+00
  8 3 1 0.00000000E+00
  9 1 1 4.50000000E+00
  9 3 1 0.00000000E+00
  10 1 1 4.50000000E+00
  10 3 1 0.00000000E+00
  11 1 1 4.50000000E+00
  11 3 1 0.00000000E+00
  12 1 1 4.50000000E+00
  12 3 1 0.00000000E+00
  13 1 1 4.50000000E+00
  13 3 1 0.00000000E+00
  14 1 1 4.50000000E+00
  14 3 1 0.00000000E+00
  15 1 1 4.50000000E+00
  15 3 1 0.00000000E+00
  16 1 1 4.50000000E+00
  16 3 1 0.00000000E+00
  17 1 1 4.50000000E+00
  17 3 1 0.00000000E+00
  18 1 1 4.50000000E+00
  18 3 1 0.00000000E+00
  19 1 1 4.50000000E+00
  19 3 1 0.00000000E+00
  20 1 1 4.50000000E+00
  20 3 1 0.00000000E+00
  21 1 1 4.50000000E+00
  21 3 1 0.00000000E+00
  22 1 1 4.50000000E+00
  22 3 1 0.00000000E+00
  23 1 1 4.50000000E+00
  23 3 1 0.00000000E+00
  24 1 1 4.50000000E+00
  24 3 1 0.00000000E+00
  25 1 1 4.50000000E+00
  25 3 1 0.00000000E+00
  26 1 1 4.50000000E+00
  26 3 1 0.00000000E+00
  27 1 1 4.50000000E+00
  27 3 1 0.00000000E+00
  28 1 1 4.50000000E+00
  28 3 1 0.00000000E+00
  29 1 1 4.50000000E+00
  29 3 1 0.00000000E+00
  1 1 2 4.50000000E+00
  1 3 2 0.00000000E+00
  2 1 2 4.50000000E+00
  2 3 2 0.00000000E+00
  3 1 2 4.50000000E+00
  3 3 2 0.00000000E+00
  4 1 2 4.50000000E+00
  4 3 2 0.00000000E+00
  5 1 2 4.50000000E+00
  5 3 2 0.00000000E+00
  6 1 2 4.50000000E+00
  6 3 2 0.00000000E+00
  7 1 2 4.50000000E+00
  7 3 2 0.00000000E+00
  8 1 2 4.50000000E+00
  8 3 2 0.00000000E+00
  9 1 2 4.50000000E+00
  9 3 2 0.00000000E+00
  10 1 2 4.50000000E+00
  10 3 2 0.00000000E+00
  11 1 2 4.50000000E+00
  11 3 2 0.00000000E+00
  12 1 2 4.50000000E+00
  12 3 2 0.00000000E+00
  13 1 2 4.50000000E+00
  13 3 2 0.00000000E+00
  14 1 2 4.50000000E+00
  14 3 2 0.00000000E+00
  15 1 2 4.50000000E+00
  15 3 2 0.00000000E+00
  16 1 2 4.50000000E+00
  16 3 2 0.00000000E+00
  17 1 2 4.50000000E+00
  17 3 2 0.00000000E+00
  18 1 2 4.50000000E+00
  18 3 2 0.00000000E+00
  19 1 2 4.50000000E+00
  19 3 2 0.00000000E+00
  20 1 2 4.50000000E+00
  20 3 2 0.00000000E+00
  21 1 2 4.50000000E+00
  21 3 2 0.00000000E+00
  22 1 2 4.50000000E+00
  22 3 2 0.00000000E+00
  23 1 2 4.50000000E+00
  23 3 2 0.00000000E+00
  24 1 2 4.50000000E+00
  24 3 2 0.00000000E+00
  25 1 2 4.50000000E+00
  25 3 2 0.00000000E+00
  26 1 2 4.50000000E+00
  26 3 2 0.00000000E+00
  27 1 2 4.50000000E+00
  27 3 2 0.00000000E+00
  28 1 2 4.50000000E+00
  28 3 2 0.00000000E+00
  29 1 2 4.50000000E+00
  29 3 2 0.00000000E+00
  1 1 3 4.50000000E+00
  1 3 3 0.00000000E+00
  2 1 3 4.50000000E+00
  2 3 3 0.00000000E+00
  3 1 3 4.50000000E+00
  3 3 3 0.00000000E+00
  4 1 3 4.50000000E+00
  4 3 3 0.00000000E+00
  5 1 3 4.50000000E+00
  5 3 3 0.00000000E+00
  6 1 3 4.50000000E+00
  6 3 3 0.00000000E+00
  7 1 3 4.50000000E+00
  7 3 3 0.00000000E+00
  8 1 3 4.50000000E+00
  8 3 3 0.00000000E+00
  9 1 3 4.50000000E+00
  9 3 3 0.00000000E+00
  10 1 3 4.50000000E+00
  10 3 3 0.00000000E+00
  11 1 3 4.50000000E+00
  11 3 3 0.00000000E+00
  12 1 3 4.50000000E+00
  12 3 3 0.00000000E+00
  13 1 3 4.50000000E+00
  13 3 3 0.00000000E+00
  14 1 3 4.50000000E+00
  14 3 3 0.00000000E+00
  15 1 3 4.50000000E+00
  15 3 3 0.00000000E+00
  16 1 3 4.50000000E+00
  16 3 3 0.00000000E+00
  17 1 3 4.50000000E+00
  17 3 3 0.00000000E+00
  18 1 3 4.50000000E+00
  18 3 3 0.00000000E+00
  19 1 3 4.50000000E+00
  19 3 3 0.00000000E+00
  20 1 3 4.50000000E+00
  20 3 3 0.00000000E+00
  21 1 3 4.50000000E+00
  21 3 3 0.00000000E+00
  22 1 3 4.50000000E+00
  22 3 3 0.00000000E+00
  23 1 3 4.50000000E+00
  23 3 3 0.00000000E+00
  24 1 3 4.50000000E+00
  24 3 3 0.00000000E+00
  25 1 3 4.50000000E+00
  25 3 3 0.00000000E+00
  26 1 3 4.50000000E+00
  26 3 3 0.00000000E+00
  27 1 3 4.50000000E+00
  27 3 3 0.00000000E+00
  28 1 3 4.50000000E+00
  28 3 3 0.00000000E+00
  29 1 3 4.50000000E+00
  29 3 3 0.00000000E+00
  2 2 1 2.25000000E+00
  2 2 3 2.25000000E+00
  3 2 1 2.25000000E+00
  3 2 3 2.25000000E+00
  4 2 1 2.25000000E+00
  4 2 3 2.25000000E+00
  5 2 1 2.25000000E+00
  5 2 3 2.25000000E+00
  6 2 1 2.25000000E+00
  6 2 3 2.25000000E+00
  7 2 1 2.25000000E+00
  7 2 3 2.25000000E+00
  8 2 1 2.25000000E+00
  8 2 3 2.25000000E+00
  9 2 1 2.25000000E+00
  9 2 3 2.25000000E+00
  10 2 1 2.25000000E+00
  10 2 3 2.25000000E+00
  11 2 1 2.25000000E+00
  11 2 3 2.25000000E+00
  12 2 1 2.25000000E+00
  12 2 3 2.25000000E+00
  13 2 1 2.25000000E+00
  13 2 3 2.25000000E+00
  14 2 1 2.25000000E+00
  14 2 3 2.25000000E+00
  15 2 1 2.25000000E+00
  15 2 3 2.25000000E+00
  16 2 1 2.25000000E+00
  16 2 3 2.25000000E+00
  17 2 1 2.25000000E+00
  17 2 3 2.25000000E+00
  18 2 1 2.25000000E+00
  18 2 3 2.25000000E+00
  19 2 1 2.25000000E+00
  19 2 3 2.25000000E+00
  20 2 1 2.25000000E+00
  20 2 3 2.25000000E+00
  21 2 1 2.25000000E+00
  21 2 3 2.25000000E+00
  22 2 1 2.25000000E+00
  22 2 3 2.25000000E+00
  23 2 1 2.25000000E+00
  23 2 3 2.25000000E+00
  24 2 1 2.25000000E+00
  24 2 3 2.25000000E+00
  25 2 1 2.25000000E+00
  25 2 3 2.25000000E+00
  26 2 1 2.25000000E+00
  26 2 3 2.25000000E+00
  27 2 1 2.25000000E+00
  27 2 3 2.25000000E+00
  28 2 1 2.25000000E+00
  28 2 3 2.25000000E+00
  1 2 2 2.25000000E+00
  29 2 2 2.25000000E+00
END period  1

