# File generated by Flopy version 3.8.2 on 11/13/2024 at 16:34:31.
BEGIN options
END options

BEGIN timing
  TDIS6  keq.tdis
END timing

BEGIN models
  gwf6  keq.nam  keq
END models

BEGIN exchanges
END exchanges

BEGIN solutiongroup  1
  ims6  keq.ims  keq
END solutiongroup  1

