# File generated by Flopy version 3.9.2 on 06/23/2025 at 16:05:09.
BEGIN options
END options

BEGIN timing
  TDIS6  test_prt.tdis
END timing

BEGIN models
  prt6  test_prt.nam  test_prt
END models

BEGIN exchanges
END exchanges

BEGIN solutiongroup  1
  ems6  test_prt.ems  test_prt
END solutiongroup  1

