# File generated by Flopy version 3.9.2 on 07/03/2025 at 16:34:12.
BEGIN options
  EXIT_SOLVE_TOLERANCE  1.00000000E-05
  EXTEND_TRACKING
  DRAPE
END options

BEGIN dimensions
  NRELEASEPTS  2000
END dimensions

BEGIN packagedata
  1  2 18 12      17.12753625      48.66523750      -9.80042797
  2  2 29 3       4.39902257      31.54183098      -9.65319926
  3  3 35 2       2.03290107      23.69993363     -10.24389590
  4  3 40 6       7.86923048      15.50396497      -9.76395416
  5  2 27 5       6.23261764      35.64861634      -9.87602301
  6  3 11 8      11.07000427      58.78496830      -9.55958847
  7  4 11 5       6.81245940      59.28444157     -10.87757255
  8  3 14 5       6.78501282      54.65485565     -10.10175027
  9  2 23 3       3.12308425      40.61412670      -9.53940563
  10  3 12 4       5.74808126      57.47552967     -10.96087855
  11  3 29 13      18.43496806      31.53019881     -10.88993755
  12  3 35 5       6.01879021      23.17940868     -10.03123770
  13  2 37 10      14.63770006      20.33539105      -9.12614844
  14  2 20 12      17.44858565      46.14515676      -9.14095632
  15  3 15 11      16.33451016      52.57348398      -9.56383186
  16  4 31 4       5.00046107      29.68632474     -10.81196512
  17  3 17 3       4.17761760      50.61646727     -10.40327359
  18  2 29 2       1.88742144      31.89472232      -9.40622665
  19  4 23 2       1.74902392      41.17943211     -10.85376886
  20  3 34 4       4.80438539      24.91721075      -9.96769812
  21  2 24 14      19.97232465      39.52808697     -10.00447895
  22  3 27 6       8.08295259      35.32726685     -10.62749964
  23  3 20 11      15.44969520      45.16521894     -10.85495073
  24  2 32 7       9.99601441      28.01502376      -9.48205648
  25  2 40 8      10.68459081      16.49394229      -9.12115115
  26  2 28 13      18.95572993      33.04461950      -9.02164268
  27  2 27 3       3.07948632      35.26167254      -9.14623166
  28  3 38 7       9.83677005      19.46889349     -10.50128879
  29  2 12 3       3.68954994      58.47088416      -9.88441297
  30  4 11 8      11.22862648      59.41578701     -10.72349021
  31  2 22 5       6.68097447      43.34070871      -9.97219581
  32  2 31 8      11.21715917      28.87936715      -9.06592984
  33  2 29 10      13.64692322      31.81962758     -10.02704681
  34  2 26 6       7.92224721      36.83904180     -10.55200978
  35  3 17 9      12.83735377      50.68115561     -10.07565653
  36  4 15 9      13.21177282      53.78034922     -10.70836736
  37  3 20 6       8.97965458      45.37593680     -10.14558764
  38  3 38 6       8.66160625      18.87281083     -10.78708340
  39  2 15 6       8.41798620      53.98364122      -9.34500379
  40  4 12 6       8.71760093      57.78010406     -10.90156547
  41  4 30 2       2.51365600      30.20849244     -10.90014372
  42  2 26 2       2.07979283      36.55617174      -9.88215433
  43  1 19 2       2.48828726      47.18781378      -9.21690972
  44  3 17 10      14.21787840      50.94271442      -9.96489199
  45  3 38 2       1.55402026      19.34331122      -9.65103126
  46  2 24 7      10.49035597      40.27923072     -10.35795994
  47  3 37 3       3.52005204      19.85917787      -9.99090904
  48  2 34 2       1.58435704      24.72884761      -9.47690960
  49  3 26 9      13.15029914      37.28286948     -10.37126953
  50  3 11 7       9.47396480      59.05794406     -10.31909271
  51  3 34 14      19.51752608      25.20682363      -9.80346719
  52  2 32 5       7.26555272      27.42213628      -9.56175400
  53  2 29 4       4.71307164      32.46083295      -9.79133102
  54  2 37 10      13.99687803      20.97838698      -9.21049011
  55  3 38 6       7.67087829      18.68470383     -10.11139859
  56  3 27 11      15.64968615      35.27360566     -10.89777809
  57  3 35 11      16.04419053      23.92753285     -10.06172483
  58  3 11 7       9.43361719      59.02467761     -10.43978189
  59  4 23 5       6.10773772      40.55579226     -10.88018127
  60  3 37 1       1.45418402      20.08455951      -9.34449270
  61  2 28 6       8.05531875      34.10576873      -9.22328977
  62  3 38 2       2.85688671      18.03291465      -9.92839612
  63  4 14 10      14.82292842      55.16786927     -10.86932579
  64  3 33 7       9.72944408      26.47619110     -10.66886744
  65  3 34 8      10.88943302      25.07401744     -10.35028954
  66  2 21 10      14.00681182      44.14414922      -9.52868500
  67  3 14 7       9.08051561      55.21702131     -10.17215129
  68  2 24 9      12.46598809      40.49099545     -10.20981040
  69  2 38 12      16.65313306      18.17361266      -9.11156173
  70  2 30 7       9.58555401      31.16337464      -9.73031847
  71  3 29 12      17.87095882      32.16228761     -10.86261081
  72  2 29 4       5.18759120      32.90749827      -9.53668160
  73  2 26 3       3.02963038      37.25965192      -9.36761773
  74  2 24 1       1.22819239      39.24956415      -9.59673426
  75  3 16 13      18.44088657      52.01489750     -10.94380487
  76  3 34 9      13.09475807      24.88987402     -10.59845244
  77  2 31 4       5.17547871      29.05834564      -9.29931215
  78  2 32 8      11.40349624      27.23017372      -9.24744608
  79  2 18 13      18.49519374      49.10230159      -9.91080895
  80  3 35 12      17.63765290      23.44945112     -10.01498161
  81  2 13 3       3.42425094      56.42132938      -9.73972119
  82  4 17 5       6.76942106      50.92161114     -10.85307798
  83  2 31 5       6.61063486      28.73781714      -9.20826637
  84  2 21 8      11.81299572      43.88623755      -9.63959132
  85  3 13 11      15.12497296      56.07245194      -9.64745155
  86  4 15 5       7.27028852      52.86920113     -10.87346698
  87  3 21 9      12.54919384      44.51697774     -10.82829184
  88  3 12 8      10.79783171      58.40234967      -9.60418600
  89  4 12 13      18.47621377      58.10834950     -10.62275372
  90  2 26 4       4.82596561      36.09370352      -9.86581880
  91  3 14 1       1.03125040      55.04321762     -10.49427406
  92  2 21 2       2.36293074      44.90793116      -9.48338520
  93  1 24 6       8.98939543      39.41671623      -9.12293414
  94  3 36 7      10.47943007      22.09827090     -10.74628065
  95  3 22 8      11.90128204      42.30777202     -10.75886617
  96  2 19 12      17.72709426      46.62286841     -10.04934708
  97  2 14 4       4.81367936      54.60660378      -9.13681643
  98  3 35 7       9.00238313      22.72849012     -10.00671093
  99  2 36 13      18.71326953      21.63708683      -9.15340894
  100  2 22 6       7.90252516      43.45898858      -9.76544123
  101  4 36 1       1.28507897      21.39676505     -10.65881882
  102  3 24 13      18.09482077      40.39281075     -10.83038192
  103  3 21 9      12.69260317      44.52106981     -10.53955946
  104  2 29 13      19.44789930      32.81286022      -9.40181130
  105  2 20 9      12.81078635      46.19379680      -9.54194121
  106  2 25 13      18.78898667      38.34299428      -9.71029769
  107  3 25 9      12.38175376      38.70859201     -10.45966755
  108  5 24 3       3.64629559      39.91201163     -10.96971382
  109  2 28 10      13.88911974      33.79395172      -9.41644013
  110  4 29 8      11.38044190      31.88004354     -10.86424071
  111  2 26 1       1.17184329      36.46275988      -9.69333900
  112  3 11 11      15.72063456      59.05694661      -9.96925653
  113  2 27 3       3.30706559      35.99815003      -9.41117669
  114  3 37 8      10.83048871      19.77731461     -10.91730218
  115  2 35 10      13.64929453      23.84845861      -9.20993240
  116  2 33 11      15.49534399      26.86729214      -9.34428145
  117  3 30 13      18.87669873      30.95439835     -10.52333780
  118  2 22 3       3.35576372      43.08261714      -9.51302914
  119  4 19 4       4.98991902      47.36610578     -10.74519234
  120  2 39 6       7.94198634      17.77692641      -9.31487897
  121  2 11 6       8.62448149      58.92057337      -9.37625181
  122  4 29 9      12.21010377      32.23945582     -10.99084908
  123  2 30 14      19.88437932      31.39116997      -9.18045340
  124  3 18 9      12.61866860      48.45992355     -10.44233789
  125  2 15 10      13.97740567      53.27820813      -9.12752588
  126  4 30 2       2.82801458      30.36837973     -10.92390501
  127  3 15 7       9.24641176      53.48127679      -9.87408255
  128  3 38 3       3.45401521      19.24799391      -9.86936496
  129  1 25 4       5.09266401      38.69332434      -9.07087838
  130  3 35 12      17.15125298      23.92303990     -10.22026101
  131  3 12 6       8.02979568      58.28867405      -9.79067826
  132  2 31 4       5.33603711      29.65783666      -9.97102898
  133  3 16 12      17.33872037      52.20030383      -9.98566158
  134  3 39 7       9.84926480      17.42589294     -10.85303933
  135  3 26 10      13.88422245      36.48791305     -10.87005710
  136  2 20 6       8.17964356      46.05733278      -9.69406173
  137  2 27 10      14.61223755      34.93887202      -9.89700200
  138  2 25 6       7.93537596      37.81331574     -10.49769771
  139  2 17 8      11.47891557      49.80642190      -9.13625216
  140  3 39 9      12.13910531      16.71516348     -10.74807804
  141  4 40 3       3.19237863      15.63457213     -10.58246380
  142  3 34 3       4.03117926      24.23493140     -10.34020224
  143  3 38 11      15.16332632      18.28978667     -10.46760830
  144  3 12 7       9.97449219      57.10917084      -9.74877090
  145  2 31 9      12.97385564      29.90689704      -9.02809517
  146  2 34 11      16.42826012      24.00227327      -9.50877104
  147  4 40 2       2.25402133      15.20006192      -9.80533268
  148  3 11 5       6.69845947      59.11905392     -10.20234215
  149  4 11 9      12.84805902      59.31984712     -10.60062395
  150  3 30 7      10.37056321      30.50653813     -10.63069059
  151  3 40 11      15.99517485      15.16946213     -10.75330881
  152  2 29 12      16.93700862      31.57868490      -9.67083062
  153  2 18 11      15.46425675      48.63668028      -9.16746450
  154  2 26 3       3.30834014      36.82970921     -10.47793148
  155  3 33 13      19.42511153      25.79441401     -10.59676320
  156  2 38 12      17.41237533      19.29417650      -9.66632002
  157  3 34 2       2.88652059      24.13903784      -9.51955291
  158  2 28 6       7.51044505      33.41168180     -10.04369554
  159  4 24 2       1.68641400      40.38693332     -10.62731965
  160  3 11 9      12.14997671      58.87877122      -9.63454031
  161  2 14 11      16.15032442      54.77849566      -9.10858630
  162  3 34 13      19.41349008      24.26679674      -9.59141695
  163  2 27 13      19.40159976      34.93263867     -10.09780762
  164  1 20 2       2.50156060      45.71162139      -9.06873294
  165  2 12 4       4.51011658      57.28928954      -9.68054370
  166  3 38 12      17.78717896      18.39128264     -10.13080599
  167  2 24 11      15.14576084      39.74670693      -9.62061825
  168  4 31 3       4.17330866      29.89889553     -10.70557848
  169  3 34 7       9.33167688      24.85395217     -10.25511401
  170  3 27 8      10.74049117      34.68553635     -10.47042548
  171  4 36 4       5.13025148      21.43612043     -10.70404911
  172  4 29 2       2.93122521      32.94384528     -10.82219198
  173  5 26 4       5.73033350      36.83390005     -10.96527088
  174  3 17 13      19.36563403      50.71778884     -10.25862882
  175  2 33 12      16.61508360      25.51473126      -9.45403282
  176  4 33 7       9.26720648      26.76503999     -10.97126817
  177  2 15 12      16.72843439      52.82409791      -9.16944149
  178  3 21 2       1.90320280      44.16680257      -9.58579067
  179  3 31 11      15.62721163      29.99099431     -10.36955739
  180  2 26 13      19.34642970      37.22670748     -10.30163777
  181  4 20 2       1.58658956      45.98600502     -10.89188910
  182  2 36 9      12.22702423      21.33524947      -9.96904947
  183  2 23 11      15.21838072      40.64978122      -9.54093824
  184  3 17 4       4.77018027      49.89276329      -9.95415081
  185  2 36 7       9.59305442      22.25788421      -9.61799106
  186  2 28 4       5.80261151      34.02651380     -10.28012985
  187  2 34 12      16.52787276      24.17088652      -9.46226489
  188  2 37 13      19.06635527      20.06527054      -9.50179416
  189  3 32 4       5.98270440      28.14841336     -10.00531929
  190  3 11 3       3.53163125      58.64196679     -10.21925637
  191  2 28 3       4.18957056      33.23906245     -10.27474466
  192  3 18 6       8.79757493      49.13176835     -10.05850443
  193  3 40 7      10.20003034      16.12097168     -10.48365601
  194  2 14 3       3.77573372      54.92690225      -9.11635318
  195  2 14 10      14.63351652      54.91268070      -9.04799949
  196  3 37 6       8.02722870      20.44290125      -9.69669470
  197  3 14 3       4.01238991      55.08932623     -10.94620255
  198  2 34 9      12.45791536      24.08698541      -9.59573528
  199  2 37 5       6.93068920      20.22615837      -9.30026592
  200  3 11 13      18.52139641      58.67562029      -9.37685066
  201  3 15 11      15.61476177      53.17825610     -10.33594027
  202  3 13 8      11.27566917      56.00486183      -9.85380058
  203  2 13 5       6.09702085      55.60358830      -9.10723442
  204  2 38 10      14.92758371      19.45579326      -9.51183124
  205  3 18 1       1.13929866      49.28106723     -10.08913537
  206  3 35 13      18.02572035      22.61979581     -10.90584789
  207  2 27 4       4.97493543      35.24820101      -9.26356102
  208  3 35 12      16.98514643      23.18883978     -10.74733328
  209  2 24 7      10.26984586      40.16864074      -9.15820031
  210  2 31 12      17.80747706      29.91366334      -9.19436031
  211  2 19 7      10.27323666      47.74192589      -9.71340427
  212  2 37 7      10.39570048      20.51175320      -9.30586341
  213  3 14 4       4.97898288      55.16405001     -10.17103056
  214  3 32 4       5.98157459      27.43862245     -10.19729018
  215  3 34 9      12.84557402      24.77771529      -9.78334191
  216  2 15 7       9.64843376      53.06154263      -9.17475001
  217  3 16 13      18.26811977      52.12765984     -10.03914356
  218  3 28 8      11.54485457      34.39826405     -10.35064180
  219  3 33 10      14.35887865      26.80110990     -10.22375500
  220  4 36 4       4.89870414      22.16907447     -10.68119354
  221  3 38 5       6.02504978      19.32574419     -10.31186770
  222  1 16 6       8.92249347      51.85866883      -9.04212255
  223  4 40 1       1.49635358      15.33103072      -9.51377895
  224  2 20 10      14.47153052      46.06892959     -10.02187450
  225  2 25 6       8.97578712      38.26439319     -10.20260299
  226  3 22 1       1.38081033      42.96816372      -9.66581977
  227  2 38 10      13.88012314      19.26833417      -9.13657050
  228  3 32 6       7.93383643      28.26582188     -10.14188198
  229  3 35 4       5.28164125      23.60307592     -10.08042348
  230  4 29 8      10.67101905      31.75258264     -10.94953594
  231  2 17 3       3.74417464      50.11858644      -9.69875215
  232  3 33 13      18.87967255      26.59409416      -9.80614552
  233  3 39 1       1.30279224      17.71092720      -9.18394219
  234  3 35 10      14.82997647      23.15005166      -9.93571066
  235  3 34 12      17.31218627      25.06928218      -9.82306233
  236  2 24 12      17.58253890      40.41636118      -9.24958068
  237  2 24 8      11.03972434      39.38781244      -9.78486770
  238  2 33 6       8.75980477      25.75847581      -9.70529267
  239  4 11 11      15.10842293      58.58180759     -10.78881925
  240  3 14 11      16.20797533      54.98231125     -10.38446725
  241  3 32 5       6.12016821      28.26018983     -10.50484738
  242  4 32 5       6.01953790      27.80525223     -10.85988763
  243  3 16 4       5.70749244      51.95308443     -10.15937217
  244  2 21 12      17.34245702      44.76053500     -10.21788374
  245  2 40 13      19.00344318      16.37275608      -9.28579817
  246  2 27 3       3.92621536      35.80207095      -9.51603101
  247  2 18 13      18.96239724      48.95022982      -9.20922087
  248  3 14 8      10.56307209      54.89818509      -9.34893471
  249  3 17 5       7.12445225      50.43414143     -10.62034242
  250  3 30 11      15.43918052      31.48011427     -10.04362144
  251  3 29 13      18.58409409      32.83023103     -10.65901715
  252  4 19 4       5.94983149      46.73684597     -10.77189081
  253  4 24 2       2.56909668      39.58164906     -10.57795896
  254  4 38 2       2.01703408      19.40096792     -10.48325509
  255  2 20 11      16.29740090      46.00734337      -9.09922612
  256  2 15 5       6.92284550      52.76743550      -9.20556458
  257  3 16 9      13.35125255      52.03753763     -10.07761376
  258  2 30 3       4.25697662      31.49533154      -9.53059579
  259  3 32 11      16.20210672      28.45864360     -10.78157891
  260  3 34 6       8.64765852      24.13328228     -10.83018485
  261  2 28 2       2.14773619      33.83673188      -9.29787601
  262  3 23 9      12.44635649      41.40179919     -10.83274897
  263  3 18 3       4.31129543      48.17655167     -10.59383191
  264  4 12 7       9.16171625      58.31286181     -10.65186710
  265  3 40 6       8.95081599      16.13968373      -9.53331180
  266  3 11 13      18.63699248      58.80705643      -9.43935733
  267  4 34 13      18.63895386      25.03206288     -10.88822665
  268  3 31 5       6.91961191      29.42122582     -10.51735192
  269  1 21 4       5.76221235      44.61811382      -9.02405206
  270  3 35 12      17.54216297      22.99821551     -10.19019542
  271  2 27 10      14.03340823      35.82605664     -10.08968955
  272  2 24 5       7.09705574      39.24508240      -9.79662353
  273  4 15 10      13.71865598      53.67351890     -10.96542197
  274  2 25 13      18.86010692      38.52884542      -9.84165661
  275  3 16 11      16.45391876      51.48334335     -10.52238910
  276  2 31 2       2.08676586      29.22778964      -9.25307060
  277  2 16 14      19.59307650      52.35514723      -9.88841126
  278  3 38 13      18.11366328      18.65212919     -10.41506991
  279  3 40 6       8.46176354      15.50660679      -9.67577630
  280  3 15 12      17.93723729      53.01180059     -10.33218073
  281  3 11 7      10.00366961      58.91966924      -9.54896766
  282  2 18 11      15.43429324      49.42690905      -9.03837356
  283  3 15 12      16.73076337      53.30800453     -10.06412291
  284  2 27 3       3.56667681      34.55606985      -9.17581102
  285  1 17 5       7.30916786      50.95504722      -9.19121081
  286  3 37 2       1.81237998      20.17548796      -9.63627911
  287  2 25 2       2.31952373      38.97650703      -9.69399734
  288  2 23 9      12.72280691      41.85285652      -9.82886282
  289  3 27 9      12.25354988      35.87531885     -10.37584724
  290  3 33 13      19.27663489      25.83336529     -10.24539816
  291  3 36 4       5.76324220      22.28134879      -9.58198540
  292  3 30 13      18.76695461      30.03363997     -10.95127544
  293  3 26 7      10.02804538      36.77805346     -10.80486139
  294  2 31 10      13.96469739      29.52182698      -9.17361119
  295  2 15 2       1.80530271      53.56359937      -9.50240552
  296  3 27 13      19.27264126      35.25880107     -10.88171669
  297  2 25 4       5.16328526      38.18217351      -9.69000924
  298  1 20 4       5.99086938      46.33755209      -9.33735245
  299  3 25 11      15.66743072      38.96457986     -10.72057667
  300  3 11 12      17.60706445      58.75395818      -9.85520619
  301  2 39 14      19.84862924      16.87955429      -9.58860054
  302  3 35 10      14.45775590      23.81691042     -10.34704071
  303  4 14 6       8.86170094      54.59133602     -10.80169926
  304  4 35 1       1.02744765      22.69925228     -10.97596999
  305  3 11 13      18.72760373      58.93413936      -9.32744906
  306  2 27 12      17.33291352      35.83712843      -9.47140039
  307  2 23 2       2.35261559      41.93913273      -9.67236787
  308  2 13 4       5.50331968      56.95223150      -9.33368981
  309  4 13 10      14.98681976      56.36968789     -10.57639555
  310  2 26 4       5.94537423      36.15519992      -9.77370828
  311  2 11 3       4.18667273      59.35324495      -9.53400591
  312  3 38 14      19.51901002      18.74817821     -10.69865092
  313  2 37 6       8.44180241      20.65731340      -9.57281308
  314  3 17 5       6.86897039      50.19100007     -10.47357557
  315  2 14 4       5.35870241      54.31352773      -9.56231659
  316  1 18 2       2.16233764      48.64133687      -9.02832793
  317  2 19 7       9.90195168      47.49472168      -9.27247874
  318  1 22 1       1.45144828      42.13785360      -9.00843428
  319  3 34 10      14.64507408      24.49491896     -10.53583853
  320  3 38 6       8.00402366      18.65526867     -10.50793210
  321  3 36 8      11.47450434      22.36584691     -10.10360974
  322  3 18 12      17.14948332      48.60951927     -10.80247891
  323  2 26 8      11.08363709      36.87678041      -9.07499828
  324  2 27 14      19.92526784      35.69222646      -9.21633836
  325  4 14 13      18.51784506      55.12650412     -10.64996354
  326  4 34 8      11.35205905      24.62305563     -10.87216177
  327  3 11 10      14.22440824      59.28031064      -9.20626336
  328  2 21 12      16.77795933      44.33638372      -9.34137726
  329  2 15 4       5.17337474      52.57952846      -9.53205679
  330  3 15 7       9.32399343      52.90323894     -10.28848038
  331  2 25 12      17.80144114      37.91937764     -10.25421575
  332  2 33 2       1.94770584      26.92321657      -9.34083904
  333  3 33 8      11.20044159      26.31241842     -10.10345795
  334  4 13 4       5.83799314      56.62881785     -10.99443715
  335  3 19 6       8.56856928      47.15516236     -10.41266925
  336  2 30 4       5.41566820      30.44143820      -9.14596394
  337  2 27 9      12.63359018      35.43901622      -9.32430512
  338  2 27 12      16.75906037      35.64344562      -9.92249788
  339  3 27 13      18.56912603      35.74077479     -10.84403386
  340  2 13 3       3.82836207      55.80229569      -9.13685924
  341  3 22 13      18.36311512      42.66903490     -10.91464947
  342  2 40 11      15.67500310      15.13984909      -9.73626341
  343  2 16 11      15.81867200      52.02348101      -9.62553519
  344  3 26 11      15.82943884      37.24874057     -10.54135698
  345  2 14 5       6.17661016      54.46040526      -9.11802238
  346  2 34 5       7.03663557      24.83123812      -9.23436686
  347  2 21 7       9.70664986      44.32842712      -9.22216127
  348  3 24 2       2.57708454      40.04592946     -10.42447232
  349  2 23 8      10.74525698      41.24052204     -10.07560511
  350  3 34 9      13.32921389      24.62085217     -10.30943630
  351  4 38 3       4.08679497      19.15776232     -10.44766431
  352  3 33 2       2.09587615      25.67642357     -10.57302454
  353  4 34 12      17.69703838      24.41520920     -10.89469899
  354  2 19 8      11.05336162      47.96730480      -9.80129088
  355  3 37 5       6.34740928      19.56320459      -9.90150605
  356  3 16 11      15.82085090      52.33576795     -10.59427308
  357  4 13 8      10.93486845      56.77448558     -10.55352073
  358  2 36 7      10.14139845      21.27286152      -9.03150754
  359  4 39 3       3.66147146      16.92318608     -10.41940062
  360  3 33 4       5.53815643      26.29213917     -10.77669981
  361  2 16 5       7.16707212      51.56874771      -9.29501570
  362  2 25 10      14.28839263      38.28927474     -10.04491220
  363  3 13 4       5.46396048      55.70006279     -10.95836635
  364  4 19 7       9.26618431      46.65004446     -10.80640596
  365  2 36 13      19.12931698      21.15819315      -9.63097400
  366  3 38 13      19.28722376      18.15208413      -9.91300345
  367  3 38 5       6.22111813      19.08180666      -9.41268991
  368  2 38 11      15.54423559      18.57707316      -9.44600502
  369  2 39 13      18.71583683      17.88850879      -9.75137803
  370  2 16 8      10.99513174      52.08846505      -9.40104578
  371  2 38 9      13.05556137      18.37983177     -10.01812004
  372  2 18 7      10.22808136      48.01297705      -9.58416719
  373  2 38 4       5.88836402      18.90330921      -9.04726388
  374  3 32 7       9.99250930      27.29791874     -10.77265911
  375  3 34 11      15.68485097      24.77868278     -10.10056514
  376  3 24 11      15.30136629      40.01253007     -10.89864937
  377  2 37 4       5.87636244      19.79527152      -9.00303176
  378  2 26 11      15.36084659      36.05930033      -9.05892438
  379  3 17 6       7.90905942      50.17887005     -10.36104578
  380  2 30 2       2.37711303      30.18215180      -9.54395555
  381  3 30 11      16.35238611      31.45854621     -10.19062305
  382  2 22 13      18.79340191      43.41304952     -10.20629436
  383  2 12 2       2.76621052      57.78311101      -9.00462860
  384  3 40 14      19.83198401      15.37438494     -10.25224530
  385  2 35 6       8.05949639      23.61338004      -9.57361434
  386  2 36 13      18.06456629      21.04440269      -9.27805991
  387  4 21 9      13.42945247      43.78132279     -10.95568839
  388  3 33 11      15.60982736      26.82759494      -9.97927882
  389  3 36 3       4.21152495      22.13097698      -9.50893319
  390  4 11 10      13.87242062      59.80587223     -10.69865061
  391  2 24 7      10.49308237      40.00356280      -9.30708625
  392  3 40 5       7.18690089      16.33425366     -10.41248937
  393  3 38 3       4.00917534      18.65522967      -9.38785549
  394  2 36 13      18.31906294      22.23413256      -9.18533214
  395  3 14 9      13.39015257      54.91948587     -10.20359989
  396  2 34 11      15.25489216      24.73622965      -9.22134133
  397  3 12 10      13.86094507      57.57370304     -10.32549874
  398  3 21 4       4.79857431      43.62676878      -9.98447198
  399  2 27 13      19.41633296      34.55587638      -9.69367938
  400  3 37 6       8.58608269      20.05686065     -10.79875490
  401  2 18 6       7.66958380      48.78196330      -9.46162916
  402  3 13 5       7.16221973      56.04941894     -10.05499470
  403  3 30 12      17.10582047      30.60545535     -10.23293285
  404  2 24 6       8.28904507      40.22661686      -9.91841696
  405  3 20 7      10.20743801      45.02854956     -10.19550178
  406  3 36 2       1.53049205      21.86372360      -9.38836607
  407  2 13 3       3.37462618      56.16225896      -9.58599004
  408  2 14 2       1.94315975      54.99836698      -9.64189747
  409  2 33 6       7.82686967      25.81374173      -9.25753916
  410  3 35 11      15.83322863      23.22174734     -10.11260612
  411  4 38 3       3.07392555      18.34611805     -10.23494742
  412  2 34 12      16.64831405      24.12741993      -9.47279291
  413  3 38 4       4.52148707      18.44645141      -9.41035692
  414  2 30 4       5.92266408      31.48380555      -9.67649139
  415  4 12 11      16.49251963      57.49129441     -10.46001346
  416  3 32 1       1.30495173      28.13978130     -10.07895891
  417  3 36 1       1.08419851      21.22098172      -9.82652063
  418  3 27 12      17.47861868      34.60149979     -10.55329869
  419  2 26 6       7.50308097      36.34275983      -9.23263880
  420  2 25 11      16.17048049      38.85867984      -9.66954130
  421  4 37 1       1.26823350      20.58360043     -10.38442835
  422  3 24 9      12.94356689      39.92890949     -10.79091829
  423  2 30 11      15.52853496      31.24698578      -9.59097102
  424  2 24 1       1.14661298      39.53366327      -9.93651774
  425  4 14 6       8.32603376      55.42712352     -10.93196167
  426  4 14 5       6.18184444      55.30733056     -10.79591268
  427  2 37 11      15.06640455      20.74183952      -9.53578122
  428  2 26 13      18.73031334      37.20631748     -10.26691513
  429  3 33 13      18.79836676      25.67953892      -9.87601827
  430  2 13 1       1.07385430      56.88008882      -9.50276580
  431  2 23 2       2.26119261      41.03073150      -9.53400672
  432  3 23 1       1.40245707      41.80387052      -9.90597831
  433  2 21 11      16.38008865      43.54545210      -9.44107511
  434  2 31 9      13.07885838      29.59533302      -9.54941699
  435  1 23 2       2.37865763      41.68909492      -9.11728485
  436  4 14 10      13.58050434      54.82016028     -10.94969706
  437  2 25 8      10.79291227      37.86889065      -9.92510555
  438  3 11 5       6.98509465      59.00747181     -10.79805604
  439  3 28 10      14.63839077      34.31235129     -10.33105472
  440  3 25 12      17.36948652      38.28834876     -10.67673815
  441  1 18 1       1.02908094      48.74967438      -9.11436191
  442  4 35 2       2.37454083      23.00820353     -10.83484407
  443  3 36 3       4.09377464      21.50214480      -9.63254446
  444  4 12 10      14.98034710      58.38514430     -10.99931077
  445  4 16 5       6.82364271      51.12712863     -10.67899947
  446  2 26 8      11.57097643      37.00651353     -10.36997673
  447  2 23 13      18.56265100      41.48195406      -9.92051737
  448  3 32 4       5.35038712      27.36007676     -10.41075324
  449  3 20 6       8.78809674      46.01933830     -10.16379131
  450  3 34 7       9.10043295      25.03574899     -10.34247158
  451  3 34 11      15.17900608      25.28189535     -10.31327599
  452  2 17 11      16.16264073      50.32301311      -9.63010690
  453  2 19 10      14.40296720      46.91863983     -10.11304938
  454  4 27 8      11.96737916      35.58169506     -10.98569358
  455  2 24 14      19.75981558      40.00992863      -9.49774626
  456  2 29 9      13.41300195      32.36439467      -9.47535296
  457  4 21 3       3.93837449      44.01343063     -10.48192284