# File generated by Flopy version 3.9.2 on 06/23/2025 at 16:05:09.
BEGIN options
END options

BEGIN packagedata
  GWFHEAD  FILEIN  \\home\schorppl$\GitHub\ArchPy\examples\14_archpy2modflow_paper\layered_hetero\test.hds
  GWFBUDGET  FILEIN  \\home\schorppl$\GitHub\ArchPy\examples\14_archpy2modflow_paper\layered_hetero\test.cbc
END packagedata

