# File generated by Flopy version 3.9.3 on 10/06/2025 at 15:22:27.
BEGIN options
END options

BEGIN packagedata
  GWFHEAD  FILEIN  m:\GitHub\ArchPy\examples\14_archpy2modflow_paper\layered_homo\test.hds
  GWFBUDGET  FILEIN  m:\GitHub\ArchPy\examples\14_archpy2modflow_paper\layered_homo\test.cbc
END packagedata

