# File generated by Flopy version 3.9.1 on 06/24/2025 at 08:52:38.
BEGIN options
END options

BEGIN packagedata
  GWFHEAD  FILEIN  c:\Users\emmal\Documents\Github\ArchPy\examples\14_archpy2modflow_paper\layered_hetero\test.hds
  GWFBUDGET  FILEIN  c:\Users\emmal\Documents\Github\ArchPy\examples\14_archpy2modflow_paper\layered_hetero\test.cbc
END packagedata

