# File generated by Flopy version 3.9.2 on 06/23/2025 at 16:05:09.
BEGIN options
END options

BEGIN griddata
  porosity
    INTERNAL  FACTOR  1.0
         0.30040547       0.29824001       0.30144444       0.30792719       0.31247482       0.30876052       0.29834712       0.28548631       0.27303264       0.26652896       0.27681026       0.28999084       0.30839720       0.33442083       0.35999823       0.36189499       0.35168290       0.32818002       0.29725221       0.28816575       0.28742844       0.29126996       0.29950914       0.30768833       0.32065853       0.33279660       0.34476414       0.34903365       0.35712579       0.36267763       0.36643100       0.35910437       0.34170485       0.32651129       0.31196889       0.30010051       0.28823435       0.27352336       0.25930575       0.25350571       0.25909692       0.27137196       0.27804464       0.27927437       0.28060654       0.28445116       0.28484005       0.28795746       0.28600073       0.28567570       0.28056332       0.27573234       0.27626488       0.29086667       0.31195787       0.33876267       0.35910633       0.36328560       0.36134014       0.35151717       0.32635376       0.30080500       0.28775445       0.27994198       0.28796992       0.30097452       0.31703708       0.31653368       0.31179839       0.30603188       0.29007122       0.27908856       0.26881748       0.27254224       0.28956458       0.30106065       0.30764836       0.31451613       0.32304803       0.32223046       0.30731422       0.28814819       0.28539929       0.28098020       0.28257495       0.27731946       0.28218988       0.29070827       0.30543056       0.31377605       0.32455036       0.32924691       0.32419556       0.32525593       0.33267567       0.33800438       0.33177021       0.32636282       0.33103874       0.32262841
         0.29190934       0.29475898       0.30558357       0.31727198       0.31992024       0.32133469       0.31656757       0.30836353       0.28815827       0.27775332       0.27905840       0.29258129       0.30783054       0.32806787       0.34045449       0.35128471       0.35212499       0.33293319       0.30044234       0.28573135       0.27481410       0.27075785       0.28338355       0.29701298       0.30621138       0.32157364       0.34266907       0.34902677       0.35514167       0.35979849       0.35459822       0.34611121       0.32625598       0.30492792       0.29562134       0.28879130       0.27463934       0.25931293       0.24712594       0.24381974       0.24624170       0.26466647       0.28106496       0.28598088       0.29159349       0.29494593       0.29443446       0.28553763       0.28119302       0.28155774       0.27740839       0.27713031       0.26807436       0.27450821       0.30265790       0.33048961       0.35599640       0.36691588       0.37227041       0.36092031       0.32978624       0.30186197       0.28535596       0.27338085       0.28597832       0.30199537       0.31070769       0.30407789       0.29924816       0.28864300       0.27481490       0.25797382       0.24963638       0.25223896       0.27214098       0.28553727       0.29659659       0.30485243       0.31006348       0.31825134       0.31285825       0.30509517       0.30653718       0.30020189       0.29714480       0.29453012       0.29945177       0.30346796       0.31512204       0.32495740       0.32420772       0.31410858       0.31342593       0.31698504       0.32538810       0.32301506       0.31998709       0.32214314       0.32678401       0.32387432
         0.28691480       0.29828721       0.30370679       0.32110193       0.32538036       0.32520378       0.32030129       0.30672309       0.29237309       0.27719763       0.27144036       0.28780270       0.29918092       0.31251150       0.33137956       0.34463617       0.34271687       0.32339776       0.30079934       0.27943173       0.26485878       0.26047847       0.27515656       0.28349933       0.29200953       0.31365877       0.33789077       0.35029417       0.35095242       0.34755188       0.34065935       0.32141054       0.29931200       0.27866724       0.27623904       0.26620370       0.25840801       0.24646184       0.23694202       0.23882206       0.24291205       0.26057717       0.27641067       0.29151443       0.29042736       0.29642931       0.29503730       0.26638615       0.26741356       0.28051165       0.27878875       0.27083591       0.26118258       0.26591429       0.28251410       0.31586680       0.34634027       0.36836982       0.37275612       0.36334109       0.33680916       0.30236661       0.28357029       0.27498147       0.28664792       0.29558152       0.30134273       0.29515669       0.28494108       0.27204293       0.25791207       0.24307571       0.23893949       0.23551016       0.24610677       0.26146713       0.27585635       0.28533325       0.29563367       0.30806300       0.31142762       0.30848482       0.31522435       0.32137644       0.31625092       0.31829551       0.32168195       0.32231101       0.32035851       0.32370457       0.31588355       0.30630079       0.30083132       0.30119166       0.30541518       0.30827543       0.31841221       0.32110605       0.32008898       0.32133657
         0.27504387       0.28169790       0.30146927       0.31695679       0.33641621       0.34724694       0.33693063       0.31828639       0.29478741       0.27597070       0.26847681       0.27698031       0.29080579       0.30394641       0.32031411       0.33460766       0.33507887       0.31671655       0.29611927       0.28813493       0.28085890       0.26718086       0.27000356       0.27451479       0.28419766       0.30595541       0.33385384       0.35109496       0.35180876       0.33825839       0.32267165       0.30089441       0.27814707       0.26645306       0.26562539       0.25894549       0.25420585       0.24210957       0.23277202       0.23681417       0.24385712       0.26211804       0.27413085       0.28703430       0.28271559       0.27927497       0.27751985       0.26117793       0.26328304       0.27740255       0.27301380       0.26699981       0.25770971       0.26833311       0.28134787       0.30807209       0.34289712       0.36241040       0.36822620       0.35813087       0.33449477       0.30032861       0.27957940       0.27178502       0.28304815       0.29499924       0.29849902       0.28792560       0.27846134       0.26549557       0.25025773       0.23481737       0.22995095       0.22489280       0.22335146       0.23834689       0.25109950       0.26400122       0.27962884       0.29378632       0.30843970       0.30867326       0.31977889       0.33018064       0.32889426       0.33869597       0.33949617       0.33284429       0.32919696       0.32291117       0.30907506       0.29381010       0.28971896       0.28513876       0.28953341       0.29236209       0.30576941       0.30818036       0.31374434       0.32478443
         0.25948161       0.27017054       0.29598898       0.31695327       0.34211382       0.34864283       0.35044152       0.33130044       0.29795578       0.29274613       0.28399575       0.27677417       0.28365606       0.29565430       0.31076261       0.32539898       0.32195726       0.31600603       0.30510613       0.30276912       0.29627475       0.28297150       0.27990314       0.27796254       0.28392434       0.29805422       0.32680455       0.33887628       0.34067678       0.33172068       0.31917876       0.29062405       0.27114859       0.25391561       0.25309590       0.25175512       0.25151688       0.24477454       0.23329124       0.23668174       0.25155979       0.26722354       0.27884823       0.28233045       0.27898902       0.26851776       0.26850522       0.25509879       0.25595039       0.26798293       0.26200697       0.26048872       0.26287121       0.27068084       0.28275502       0.30818319       0.33483571       0.35122490       0.34932554       0.34668148       0.33322591       0.31125054       0.28831363       0.28088894       0.28193951       0.28165704       0.27207774       0.27478498       0.27687266       0.26276600       0.25247219       0.24072790       0.23360795       0.22683939       0.21615827       0.22239533       0.23506004       0.24284804       0.26066092       0.27824405       0.29270262       0.30410334       0.32453182       0.33851290       0.34684849       0.35171676       0.34930167       0.34311748       0.33695912       0.32897618       0.30506870       0.28447387       0.28210297       0.27513650       0.27692476       0.27769405       0.28897145       0.30561000       0.30928063       0.31847987
         0.25262856       0.26338324       0.28785655       0.31399280       0.33153364       0.34114563       0.34206864       0.32604739       0.30485818       0.29431865       0.28465438       0.28363028       0.27949479       0.28994459       0.29867586       0.30955344       0.32035130       0.32320541       0.31494591       0.31438738       0.31351539       0.30328146       0.29079205       0.28401065       0.28081676       0.29725626       0.31392938       0.32713813       0.32743755       0.32030886       0.31448254       0.29027346       0.26387432       0.24402715       0.24561931       0.25656471       0.25531307       0.25485763       0.24974740       0.25331110       0.26963156       0.28430289       0.28463602       0.27635857       0.27197275       0.25883293       0.25953749       0.24881953       0.24539274       0.25606763       0.26063681       0.26158538       0.26642957       0.27674761       0.29228494       0.30392182       0.32056257       0.33374676       0.33224389       0.33533591       0.33128893       0.31267846       0.29746678       0.29257318       0.27836269       0.26978612       0.26125556       0.25953352       0.26830551       0.26311463       0.25347677       0.25288004       0.24312736       0.23222575       0.21304384       0.21349259       0.21467189       0.22294754       0.24446921       0.25958487       0.27340341       0.29341915       0.31454796       0.32981095       0.34650788       0.35937360       0.35450163       0.34957772       0.33789852       0.32441926       0.30878279       0.28985077       0.28279975       0.27414110       0.27781042       0.28122586       0.28592649       0.29649550       0.30607358       0.31262341
         0.25654465       0.27276760       0.29213583       0.31048903       0.32105917       0.32932222       0.33247912       0.32050955       0.30538931       0.29167449       0.27860665       0.28025451       0.28217760       0.28634936       0.28528026       0.29662740       0.31673408       0.33107308       0.33283493       0.32968089       0.32507908       0.31144321       0.30418646       0.29834116       0.29294127       0.29938722       0.30646136       0.31923231       0.31045097       0.31193304       0.30740491       0.28778446       0.26709297       0.25047061       0.24207157       0.25294825       0.25164872       0.25566664       0.26164076       0.26953539       0.28817114       0.29637972       0.29197553       0.28016222       0.27740341       0.27004901       0.26173085       0.24937649       0.25152162       0.25846112       0.26198518       0.26684630       0.27687883       0.28837135       0.29521430       0.31212625       0.32318121       0.32808891       0.33037436       0.33506370       0.33363491       0.31729662       0.30421883       0.29562408       0.28963894       0.27105993       0.25573128       0.25032476       0.25981179       0.26085240       0.25795203       0.25894359       0.24962978       0.23631090       0.22507048       0.21897440       0.21339552       0.21462904       0.22968963       0.23782635       0.25921175       0.27896935       0.30120718       0.31005296       0.32439417       0.34028631       0.34808430       0.34690413       0.34175524       0.33252543       0.31755453       0.30354911       0.29467100       0.28452101       0.28544965       0.29026040       0.28652045       0.29167071       0.30141288       0.31023526
         0.25870937       0.27867034       0.29444024       0.30744532       0.31725192       0.33220667       0.33279321       0.32135904       0.30851305       0.28902090       0.27832115       0.27913326       0.27531475       0.27532646       0.27757597       0.29856658       0.31956291       0.33478856       0.34013602       0.34367687       0.33580032       0.32523617       0.31211358       0.30478290       0.29840976       0.29765147       0.29178938       0.29725462       0.29638487       0.29320568       0.28922436       0.29161847       0.28429642       0.27144545       0.26136759       0.25788191       0.26191440       0.26887745       0.28233972       0.28463978       0.29759374       0.30770895       0.30727604       0.29446849       0.28798550       0.28094602       0.26629680       0.25615019       0.26294231       0.27006167       0.28070083       0.28571188       0.28912809       0.29181534       0.30105042       0.31360236       0.31411067       0.32445496       0.32050812       0.32723278       0.32754248       0.31535751       0.30482009       0.29723656       0.29168195       0.26862499       0.24415407       0.23905508       0.25183913       0.25821048       0.26473296       0.27033496       0.26122162       0.24284735       0.22808628       0.22615330       0.21441041       0.21175309       0.21580251       0.22828083       0.24635594       0.26913303       0.28867644       0.29958880       0.31409270       0.32326370       0.32634026       0.33381507       0.33906609       0.33775175       0.33160931       0.33307931       0.31970647       0.30741411       0.30553684       0.30590239       0.29373026       0.29417467       0.30753142       0.31140175
         0.27030024       0.27828148       0.28778601       0.29809242       0.30664930       0.31598404       0.32249248       0.31434682       0.30871597       0.29295528       0.28041667       0.28028512       0.27845263       0.27174905       0.27685779       0.29576275       0.32147643       0.34302482       0.34981656       0.34778005       0.34370932       0.33042601       0.31756213       0.30125460       0.29748258       0.28936699       0.27884448       0.28029695       0.28399733       0.28354213       0.27993590       0.29317334       0.28976569       0.28861776       0.27801263       0.26661298       0.26944414       0.27785894       0.29216954       0.30460733       0.31403881       0.31755015       0.31937435       0.30461860       0.29608479       0.29042980       0.28014889       0.27181888       0.27339664       0.28571400       0.29917970       0.30666474       0.31015283       0.31532723       0.31718057       0.31269878       0.31125194       0.32543167       0.31596833       0.31427261       0.31697315       0.30472192       0.29601207       0.29896706       0.29673436       0.28097716       0.25705141       0.24891657       0.25468662       0.26454988       0.27314562       0.27594835       0.26794797       0.25161162       0.23626368       0.23191135       0.22150679       0.21111877       0.20589383       0.21506314       0.23474514       0.25089842       0.27388218       0.29023984       0.29283482       0.29872692       0.30648306       0.32384875       0.33670726       0.34527212       0.34878618       0.34436503       0.33812886       0.32906717       0.32246366       0.31950235       0.30669835       0.30686858       0.31345168       0.30574396
         0.27402237       0.27634123       0.27727306       0.29874009       0.30714911       0.31627887       0.31586361       0.31412140       0.31048605       0.30182320       0.28872311       0.28594628       0.28639179       0.28282404       0.29895768       0.31411269       0.32691404       0.34164444       0.35682920       0.35526216       0.33891022       0.33360487       0.31556293       0.29839662       0.28801244       0.28076977       0.26736730       0.26027837       0.27242866       0.27898526       0.28439528       0.29099849       0.29503164       0.29376125       0.28131455       0.27313930       0.27583423       0.28454021       0.30042803       0.32063806       0.32980803       0.32346207       0.31524429       0.30474958       0.29557192       0.29245019       0.29248568       0.28427646       0.29513457       0.30315179       0.31464329       0.32654226       0.33122882       0.33309618       0.33550835       0.33378232       0.32769543       0.33107510       0.31528801       0.30504891       0.29748973       0.29066536       0.29044351       0.29773158       0.30203739       0.28874975       0.27100348       0.26456541       0.26080844       0.27060592       0.27966538       0.28120220       0.27571940       0.26569566       0.25010532       0.24240081       0.23104468       0.21626662       0.20291635       0.20065720       0.22211978       0.24404034       0.26429924       0.28190362       0.28622377       0.29165697       0.30673000       0.32470393       0.34034479       0.34879470       0.35059977       0.35073265       0.34595805       0.34299794       0.33550349       0.32819793       0.32303196       0.31688944       0.31941727       0.31372240
         0.27073383       0.27090085       0.26968092       0.29065347       0.29831511       0.30945268       0.31468645       0.32094312       0.31489226       0.31063926       0.30425102       0.30467173       0.30056036       0.28965387       0.31584978       0.33294594       0.34631118       0.35494995       0.35872266       0.35598856       0.34141412       0.32752186       0.31640339       0.30004895       0.27807876       0.27133331       0.26432884       0.26004678       0.26064447       0.27036917       0.27927333       0.28972328       0.29499066       0.28915545       0.28383347       0.27222097       0.27647498       0.28582323       0.30790859       0.32416317       0.33125910       0.32867134       0.31910241       0.30684823       0.29462352       0.29310963       0.30047581       0.29781783       0.30846930       0.31577495       0.32922584       0.33843836       0.34178621       0.34107000       0.34792066       0.34589058       0.33493021       0.33200863       0.31326967       0.29324597       0.28319398       0.27548972       0.28454176       0.30303651       0.30762851       0.29473880       0.28573143       0.28228098       0.27578959       0.27661762       0.28756711       0.30044100       0.28917935       0.26792455       0.25146660       0.25059554       0.23783559       0.22386406       0.21180581       0.21327648       0.23584956       0.25004244       0.27045658       0.27643362       0.28126487       0.29237467       0.30880395       0.32492948       0.34606791       0.35094041       0.35013995       0.35068068       0.35312372       0.35239795       0.34761921       0.34647807       0.33789676       0.32903197       0.32932830       0.32465288
         0.27200687       0.26681650       0.27086908       0.28144175       0.29628390       0.30639157       0.31601450       0.32831919       0.32418925       0.32350174       0.32164133       0.31817880       0.30949044       0.31693158       0.32850990       0.34565425       0.34985209       0.35411915       0.36163849       0.35376260       0.34169742       0.32534844       0.31409138       0.29253340       0.27479252       0.26559132       0.26003894       0.25374544       0.24591435       0.24892095       0.26862034       0.27306589       0.28063899       0.27904412       0.27068588       0.27415189       0.27824143       0.29016778       0.31401691       0.32385519       0.32875535       0.32270885       0.32259679       0.31456417       0.31289694       0.30582002       0.30354497       0.30852515       0.31951001       0.32695660       0.34297723       0.35202244       0.34583834       0.34391439       0.34599954       0.34046489       0.33269736       0.33059540       0.30816811       0.28191724       0.26829839       0.27496731       0.28730160       0.30067337       0.30674571       0.30581981       0.29908487       0.29274699       0.28725094       0.28507879       0.29224330       0.30892336       0.29576609       0.27788621       0.26772034       0.26041263       0.24729708       0.23351432       0.22817697       0.22902200       0.24315757       0.24799368       0.26378173       0.27852708       0.28535283       0.29726201       0.31696767       0.32654947       0.33381122       0.34273753       0.34814298       0.35049540       0.35464171       0.35119182       0.34674770       0.35217127       0.34760168       0.34644178       0.34439430       0.33301383
         0.28741413       0.28052884       0.27931771       0.28125301       0.29421642       0.30889168       0.32530767       0.33640543       0.33423841       0.32943708       0.32874602       0.32722557       0.32920474       0.33633256       0.34337807       0.35675344       0.36090276       0.35655364       0.36648816       0.36100394       0.34524384       0.32413945       0.30378714       0.27963874       0.26886091       0.25672022       0.25462267       0.24253559       0.23459068       0.23636992       0.24633308       0.26312944       0.27305150       0.26955611       0.26858932       0.27097094       0.27654570       0.29126337       0.31016281       0.31990686       0.32742918       0.32161966       0.31494942       0.31865385       0.32135880       0.32024905       0.31749681       0.31709716       0.32000473       0.32675412       0.34074670       0.34784633       0.34568387       0.33836591       0.33253792       0.32589787       0.32437873       0.31785184       0.29182586       0.27296039       0.27287591       0.28418899       0.29809183       0.30586699       0.31270605       0.31855252       0.31959397       0.30545872       0.30111596       0.29522142       0.30187666       0.30707210       0.30211204       0.28832811       0.28362471       0.29895156       0.26494601       0.24780707       0.23269531       0.24062158       0.25119564       0.24533737       0.25007701       0.26501188       0.27453610       0.28839740       0.30419973       0.31175211       0.31926629       0.32670617       0.33605757       0.33820063       0.34187356       0.34426156       0.34097132       0.34386447       0.35356882       0.35474807       0.35709307       0.34350225
         0.29579321       0.29435927       0.29173243       0.28770524       0.29703712       0.31876719       0.33715957       0.34978282       0.34229982       0.33851686       0.33317703       0.33300924       0.34213299       0.34777069       0.35383818       0.35764429       0.35985252       0.35864204       0.36744756       0.36477011       0.35345444       0.33177495       0.30770415       0.28384125       0.26996216       0.26184520       0.24820282       0.23569447       0.22937576       0.23293152       0.23968278       0.25495338       0.26772386       0.26695877       0.27177048       0.27527055       0.28011188       0.29097560       0.30400088       0.30930093       0.31476820       0.31538427       0.31747520       0.32217714       0.32480517       0.32569155       0.32207555       0.32061097       0.31460050       0.31153575       0.31724280       0.32437271       0.33248922       0.32516283       0.31597042       0.30384868       0.29166448       0.28145051       0.26548657       0.25621045       0.26553982       0.28503504       0.29817301       0.31187022       0.32478297       0.32902750       0.32427856       0.31301978       0.30717468       0.29691160       0.29297692       0.30563673       0.30668321       0.30099088       0.29895156       0.29895156       0.27310780       0.25229561       0.23943400       0.25130433       0.25446892       0.25612524       0.26503426       0.26662415       0.27863172       0.28768101       0.29429463       0.29360452       0.30460387       0.31195170       0.31949407       0.32973331       0.33294433       0.33083031       0.34148932       0.35259444       0.35891280       0.36751777       0.36330730       0.34933862
         0.29936254       0.29508734       0.29396728       0.29483518       0.30060196       0.32109421       0.33537593       0.34339967       0.35070398       0.35075140       0.34551239       0.34429693       0.34018755       0.34877616       0.35909346       0.35976568       0.36276832       0.37142068       0.38080460       0.37251520       0.35724676       0.33986893       0.31413132       0.29298088       0.27372748       0.26351953       0.24766022       0.23628010       0.22682394       0.22849548       0.23610179       0.26015055       0.26472870       0.27493644       0.27899492       0.27997103       0.27539659       0.28383297       0.28859499       0.29833704       0.30168110       0.30698290       0.32014954       0.32614616       0.32521370       0.32069975       0.31128961       0.30157089       0.29715100       0.30044788       0.29630733       0.29383773       0.30379897       0.30325747       0.29270920       0.28068641       0.26341757       0.25403491       0.25061661       0.24445017       0.25479648       0.27337116       0.29401648       0.30640483       0.32136956       0.32515043       0.31683308       0.31198710       0.30849582       0.30424118       0.30678567       0.30301437       0.31248149       0.29895156       0.29895156       0.29895156       0.29895156       0.26746768       0.26686719       0.26964578       0.27054992       0.26698080       0.27410585       0.28678191       0.28860760       0.29361886       0.28741989       0.29101855       0.28890598       0.29091650       0.30477735       0.31882286       0.32557386       0.32909018       0.34487519       0.35885042       0.35988182       0.35965803       0.35803959       0.34832519
         0.29464981       0.29377082       0.29141393       0.29951015       0.30612135       0.32811391       0.34203991       0.34560633       0.35576785       0.35430473       0.35581911       0.34597814       0.33944830       0.34170070       0.35082716       0.35351235       0.36424452       0.37158242       0.37396896       0.36382711       0.34073231       0.32387877       0.31368321       0.30228028       0.27692086       0.25947803       0.25010607       0.24148044       0.22912714       0.22746491       0.23563144       0.26299596       0.27408022       0.28861144       0.28475189       0.28042188       0.27715003       0.27796090       0.28181446       0.29036006       0.30084789       0.31191236       0.31886074       0.32424957       0.32161742       0.31510293       0.30267623       0.28938690       0.28932911       0.29349557       0.27468684       0.26479253       0.27258819       0.27179745       0.26504269       0.25902727       0.24704215       0.24511699       0.24338023       0.24198894       0.25119442       0.26431635       0.27914885       0.29518771       0.30904207       0.31899869       0.31869030       0.31650513       0.31227708       0.30888268       0.31035209       0.31726599       0.29895156       0.29895156       0.29895156       0.29895156       0.29895156       0.28857175       0.28609404       0.29583421       0.29253447       0.28469002       0.29360402       0.29972425       0.29554775       0.29030699       0.27800691       0.28268421       0.27599543       0.27322423       0.29279524       0.30935174       0.31860593       0.33506876       0.33832288       0.34661743       0.35078225       0.34123406       0.33410498       0.32478902
         0.28843296       0.28701866       0.29049566       0.30320475       0.31565741       0.33081067       0.34431145       0.34764737       0.35289842       0.36125353       0.35134268       0.33307886       0.32725883       0.32232556       0.32398477       0.32908648       0.34581578       0.35103446       0.35645884       0.34831107       0.32590291       0.32260782       0.31542984       0.30470207       0.28792822       0.27178520       0.25751200       0.24830548       0.24507353       0.24942398       0.25242066       0.27293310       0.28851211       0.29296088       0.28806734       0.27428412       0.27151191       0.27120280       0.27439860       0.28733319       0.30707374       0.31972063       0.32972887       0.32964379       0.31985486       0.30810666       0.30646288       0.29581615       0.28841582       0.27147824       0.24944822       0.23832759       0.24410737       0.24546279       0.24548589       0.24889264       0.24514325       0.24433607       0.24349165       0.24216992       0.24958619       0.26811278       0.27600911       0.29318741       0.30259687       0.32170042       0.31878984       0.31315634       0.31005421       0.31797317       0.32913187       0.32893983       0.29895156       0.29895156       0.29895156       0.29895156       0.29895156       0.29758996       0.31028628       0.32529595       0.32557133       0.31259862       0.30852997       0.30800766       0.29720369       0.28892127       0.27345479       0.26985407       0.26687431       0.27102053       0.29085132       0.30202362       0.30638659       0.32115918       0.32949972       0.33725581       0.33527330       0.32013252       0.31095591       0.29444975