# File generated by Flopy version 3.9.1 on 06/09/2025 at 13:02:09.
BEGIN options
  BUDGET  FILEOUT  test_prt.bud
  TRACK  FILEOUT  test_prt.trk
  TRACKCSV  FILEOUT  test_prt.trk.csv
END options

BEGIN period  1
  SAVE  BUDGET  ALL
END period  1

