# File generated by Flopy version 3.9.2 on 06/23/2025 at 16:05:09.
BEGIN options
END options

BEGIN packages
  MIP6  test_prt.mip  mip
  DIS6  test_prt.dis  dis
  PRP6  test_prt.prp  prp
  OC6  test_prt.oc  oc
  FMI6  test_prt.fmi  fmi
END packages

