# File generated by Flopy version 3.9.1 on 06/09/2025 at 13:02:08.
BEGIN options
END options

BEGIN griddata
  porosity
    INTERNAL  FACTOR  1.0
         0.29999998       0.29999998       0.30000001       0.30000001       0.30000001       0.30000001       0.30000001       0.30000001       0.30000001       0.30000001       0.30000001       0.30000001       0.29999998       0.29999998       0.29999998       0.29999998       0.30000001       0.30000001       0.30000001       0.30000001       0.30000001       0.30000001       0.29999998       0.29999998       0.29999998       0.29999998       0.30000001       0.30000001       0.30000001       0.30000001       0.30000001       0.30000001       0.30000001       0.30000001       0.30000001       0.30000001       0.30000001       0.30000001       0.30000001       0.30000001       0.30000001       0.30000001       0.30000001       0.30000001       0.30000001       0.30000001       0.30000001       0.30000001       0.30000001       0.30000001       0.30000001       0.30000001       0.30000001       0.30000001       0.30000001       0.29999998       0.29999998       0.30000001       0.30000001       0.30000001       0.30000001       0.30000001       0.30000001       0.30000001       0.30000001       0.30000001       0.30000001       0.30000001       0.30000001       0.30000001       0.30000001       0.30000001       0.30000001       0.30000001       0.30000001       0.30000001       0.30000001       0.30000001       0.30000001       0.30000001       0.30000001       0.29999998       0.29999998       0.29999998       0.29999998       0.29999998       0.29999998       0.29999998       0.29999998       0.29999998       0.29999998       0.29999998       0.30000001       0.30000001       0.29999998       0.29999998       0.29999998       0.29999998       0.29999998       0.29999998
         0.29999998       0.30000001       0.30000001       0.30000001       0.30000001       0.30000001       0.30000001       0.30000001       0.30000001       0.30000001       0.30000001       0.30000001       0.30000001       0.29999998       0.29999998       0.29999998       0.30000001       0.30000001       0.30000001       0.30000001       0.30000001       0.30000001       0.29999998       0.29999998       0.30000001       0.30000001       0.30000001       0.30000001       0.30000001       0.29999998       0.29999998       0.29999998       0.30000001       0.30000001       0.30000001       0.30000001       0.30000001       0.30000001       0.30000001       0.30000001       0.29999998       0.29999998       0.30000001       0.30000001       0.30000001       0.30000001       0.30000001       0.30000001       0.30000001       0.30000001       0.30000001       0.30000001       0.30000001       0.30000001       0.30000001       0.29999998       0.29999998       0.30000001       0.30000001       0.30000001       0.30000001       0.30000001       0.30000001       0.30000001       0.30000001       0.30000001       0.30000001       0.30000001       0.30000001       0.30000001       0.30000001       0.30000001       0.30000001       0.30000001       0.30000001       0.30000001       0.30000001       0.30000001       0.30000001       0.30000001       0.29999998       0.29999998       0.29999998       0.29999998       0.29999998       0.29999998       0.29999998       0.29999998       0.29999998       0.29999998       0.29999998       0.29999998       0.29999998       0.29999998       0.29999998       0.29999998       0.29999998       0.29999998       0.29999998       0.29999998
         0.30000001       0.30000001       0.30000001       0.30000001       0.30000001       0.30000001       0.30000001       0.30000001       0.30000001       0.30000001       0.30000001       0.30000001       0.29999998       0.29999998       0.29999998       0.30000001       0.30000001       0.30000001       0.30000001       0.30000001       0.30000001       0.29999998       0.29999998       0.30000001       0.30000001       0.30000001       0.30000001       0.29999998       0.29999998       0.29999998       0.29999998       0.29999998       0.29999998       0.29999998       0.30000001       0.30000001       0.30000001       0.30000001       0.30000001       0.30000001       0.30000001       0.29999998       0.29999998       0.30000001       0.30000001       0.30000001       0.29999998       0.30000001       0.30000001       0.29999998       0.29999998       0.30000001       0.30000001       0.30000001       0.30000001       0.29999998       0.29999998       0.30000001       0.30000001       0.30000001       0.30000001       0.30000001       0.30000001       0.30000001       0.30000001       0.30000001       0.30000001       0.30000001       0.30000001       0.30000001       0.30000001       0.30000001       0.30000001       0.30000001       0.30000001       0.30000001       0.30000001       0.30000001       0.30000001       0.29999998       0.29999998       0.29999998       0.29999998       0.29999998       0.29999998       0.29999998       0.29999998       0.29999998       0.29999998       0.29999998       0.29999998       0.29999998       0.29999998       0.29999998       0.29999998       0.29999998       0.29999998       0.29999998       0.29999998       0.29999998
         0.30000001       0.30000001       0.30000001       0.30000001       0.30000001       0.30000001       0.30000001       0.30000001       0.30000001       0.30000001       0.30000001       0.30000001       0.29999998       0.29999998       0.29999998       0.30000001       0.30000001       0.30000001       0.30000001       0.30000001       0.29999998       0.29999998       0.30000001       0.30000001       0.30000001       0.30000001       0.29999998       0.29999998       0.29999998       0.29999998       0.29999998       0.29999998       0.29999998       0.29999998       0.29999998       0.29999998       0.30000001       0.30000001       0.30000001       0.30000001       0.30000001       0.30000001       0.30000001       0.29999998       0.29999998       0.29999998       0.29999998       0.29999998       0.29999998       0.29999998       0.29999998       0.30000001       0.30000001       0.30000001       0.30000001       0.30000001       0.29999998       0.29999998       0.30000001       0.30000001       0.30000001       0.30000001       0.30000001       0.30000001       0.30000001       0.30000001       0.30000001       0.30000001       0.30000001       0.30000001       0.30000001       0.30000001       0.30000001       0.30000001       0.30000001       0.30000001       0.30000001       0.30000001       0.29999998       0.29999998       0.29999998       0.29999998       0.29999998       0.29999998       0.29999998       0.29999998       0.29999998       0.29999998       0.29999998       0.29999998       0.29999998       0.29999998       0.29999998       0.29999998       0.29999998       0.29999998       0.29999998       0.29999998       0.29999998       0.29999998
         0.30000001       0.30000001       0.30000001       0.30000001       0.30000001       0.30000001       0.30000001       0.30000001       0.30000001       0.30000001       0.30000001       0.30000001       0.29999998       0.29999998       0.29999998       0.30000001       0.30000001       0.30000001       0.30000001       0.29999998       0.29999998       0.30000001       0.30000001       0.30000001       0.30000001       0.29999998       0.29999998       0.29999998       0.29999998       0.29999998       0.29999998       0.29999998       0.29999998       0.29999998       0.29999998       0.29999998       0.30000001       0.30000001       0.30000001       0.30000001       0.30000001       0.30000001       0.30000001       0.29999998       0.29999998       0.29999998       0.29999998       0.29999998       0.29999998       0.29999998       0.29999998       0.29999998       0.30000001       0.30000001       0.30000001       0.30000001       0.29999998       0.29999998       0.29999998       0.30000001       0.30000001       0.30000001       0.30000001       0.30000001       0.30000001       0.30000001       0.30000001       0.30000001       0.30000001       0.30000001       0.30000001       0.30000001       0.30000001       0.30000001       0.30000001       0.30000001       0.29999998       0.29999998       0.29999998       0.29999998       0.29999998       0.29999998       0.29999998       0.29999998       0.29999998       0.29999998       0.29999998       0.29999998       0.29999998       0.29999998       0.29999998       0.29999998       0.29999998       0.29999998       0.29999998       0.29999998       0.29999998       0.29999998       0.29999998       0.29999998
         0.30000001       0.30000001       0.30000001       0.30000001       0.30000001       0.30000001       0.30000001       0.30000001       0.30000001       0.30000001       0.30000001       0.30000001       0.30000001       0.29999998       0.29999998       0.29999998       0.30000001       0.30000001       0.29999998       0.29999998       0.30000001       0.30000001       0.30000001       0.30000001       0.29999998       0.29999998       0.29999998       0.29999998       0.29999998       0.29999998       0.29999998       0.29999998       0.29999998       0.29999998       0.29999998       0.29999998       0.29999998       0.30000001       0.30000001       0.30000001       0.30000001       0.30000001       0.29999998       0.29999998       0.29999998       0.29999998       0.29999998       0.29999998       0.29999998       0.29999998       0.29999998       0.29999998       0.30000001       0.30000001       0.30000001       0.30000001       0.30000001       0.29999998       0.29999998       0.30000001       0.30000001       0.30000001       0.30000001       0.30000001       0.30000001       0.30000001       0.30000001       0.30000001       0.30000001       0.30000001       0.30000001       0.30000001       0.30000001       0.30000001       0.30000001       0.30000001       0.29999998       0.29999998       0.29999998       0.29999998       0.29999998       0.29999998       0.29999998       0.29999998       0.29999998       0.29999998       0.29999998       0.29999998       0.29999998       0.29999998       0.29999998       0.29999998       0.29999998       0.29999998       0.29999998       0.29999998       0.29999998       0.29999998       0.29999998       0.29999998
         0.30000001       0.30000001       0.30000001       0.30000001       0.30000001       0.30000001       0.30000001       0.30000001       0.30000001       0.30000001       0.30000001       0.30000001       0.29999998       0.29999998       0.29999998       0.29999998       0.30000001       0.29999998       0.29999998       0.29999998       0.30000001       0.30000001       0.30000001       0.29999998       0.29999998       0.29999998       0.29999998       0.29999998       0.29999998       0.29999998       0.29999998       0.29999998       0.29999998       0.29999998       0.29999998       0.29999998       0.29999998       0.30000001       0.30000001       0.30000001       0.30000001       0.30000001       0.29999998       0.29999998       0.29999998       0.29999998       0.29999998       0.29999998       0.30000001       0.30000001       0.29999998       0.29999998       0.29999998       0.30000001       0.30000001       0.30000001       0.30000001       0.29999998       0.29999998       0.30000001       0.30000001       0.30000001       0.30000001       0.30000001       0.30000001       0.30000001       0.30000001       0.30000001       0.30000001       0.30000001       0.30000001       0.30000001       0.30000001       0.30000001       0.30000001       0.30000001       0.29999998       0.29999998       0.29999998       0.29999998       0.29999998       0.29999998       0.30000001       0.30000001       0.29999998       0.29999998       0.29999998       0.29999998       0.29999998       0.29999998       0.29999998       0.29999998       0.29999998       0.29999998       0.29999998       0.29999998       0.29999998       0.29999998       0.29999998       0.30000001
         0.30000001       0.30000001       0.30000001       0.30000001       0.30000001       0.30000001       0.30000001       0.30000001       0.30000001       0.30000001       0.30000001       0.30000001       0.29999998       0.29999998       0.29999998       0.29999998       0.29999998       0.29999998       0.29999998       0.29999998       0.30000001       0.30000001       0.30000001       0.29999998       0.29999998       0.29999998       0.29999998       0.29999998       0.29999998       0.29999998       0.29999998       0.29999998       0.29999998       0.29999998       0.29999998       0.29999998       0.30000001       0.30000001       0.30000001       0.30000001       0.30000001       0.29999998       0.29999998       0.29999998       0.29999998       0.29999998       0.29999998       0.29999998       0.30000001       0.30000001       0.29999998       0.29999998       0.29999998       0.30000001       0.30000001       0.30000001       0.30000001       0.29999998       0.29999998       0.30000001       0.30000001       0.30000001       0.30000001       0.30000001       0.30000001       0.30000001       0.30000001       0.30000001       0.30000001       0.30000001       0.30000001       0.30000001       0.30000001       0.30000001       0.30000001       0.30000001       0.30000001       0.30000001       0.30000001       0.30000001       0.29999998       0.29999998       0.30000001       0.30000001       0.30000001       0.30000001       0.30000001       0.30000001       0.30000001       0.30000001       0.29999998       0.29999998       0.29999998       0.29999998       0.29999998       0.29999998       0.29999998       0.30000001       0.30000001       0.30000001
         0.30000001       0.30000001       0.30000001       0.30000001       0.30000001       0.30000001       0.30000001       0.30000001       0.30000001       0.30000001       0.30000001       0.30000001       0.30000001       0.29999998       0.29999998       0.29999998       0.29999998       0.29999998       0.29999998       0.30000001       0.30000001       0.30000001       0.29999998       0.29999998       0.29999998       0.29999998       0.29999998       0.29999998       0.29999998       0.29999998       0.29999998       0.29999998       0.29999998       0.29999998       0.29999998       0.29999998       0.29999998       0.29999998       0.30000001       0.30000001       0.29999998       0.29999998       0.29999998       0.29999998       0.29999998       0.29999998       0.29999998       0.29999998       0.29999998       0.29999998       0.29999998       0.29999998       0.29999998       0.30000001       0.30000001       0.30000001       0.30000001       0.29999998       0.30000001       0.30000001       0.30000001       0.30000001       0.30000001       0.30000001       0.30000001       0.30000001       0.30000001       0.30000001       0.30000001       0.30000001       0.30000001       0.30000001       0.30000001       0.30000001       0.30000001       0.30000001       0.30000001       0.30000001       0.30000001       0.30000001       0.30000001       0.29999998       0.30000001       0.30000001       0.30000001       0.30000001       0.30000001       0.30000001       0.30000001       0.30000001       0.30000001       0.29999998       0.29999998       0.29999998       0.29999998       0.29999998       0.29999998       0.29999998       0.29999998       0.30000001
         0.30000001       0.30000001       0.30000001       0.30000001       0.30000001       0.30000001       0.30000001       0.30000001       0.30000001       0.30000001       0.30000001       0.30000001       0.30000001       0.29999998       0.29999998       0.29999998       0.29999998       0.29999998       0.29999998       0.30000001       0.30000001       0.30000001       0.29999998       0.29999998       0.29999998       0.29999998       0.29999998       0.29999998       0.29999998       0.29999998       0.29999998       0.29999998       0.29999998       0.29999998       0.29999998       0.29999998       0.29999998       0.29999998       0.29999998       0.29999998       0.29999998       0.29999998       0.29999998       0.29999998       0.29999998       0.29999998       0.29999998       0.29999998       0.29999998       0.30000001       0.29999998       0.29999998       0.29999998       0.30000001       0.30000001       0.30000001       0.29999998       0.29999998       0.30000001       0.30000001       0.30000001       0.30000001       0.30000001       0.30000001       0.30000001       0.30000001       0.30000001       0.30000001       0.30000001       0.30000001       0.30000001       0.30000001       0.30000001       0.30000001       0.30000001       0.30000001       0.30000001       0.30000001       0.30000001       0.30000001       0.30000001       0.29999998       0.30000001       0.30000001       0.30000001       0.30000001       0.30000001       0.30000001       0.30000001       0.30000001       0.30000001       0.29999998       0.29999998       0.29999998       0.29999998       0.29999998       0.30000001       0.29999998       0.29999998       0.29999998
         0.30000001       0.30000001       0.30000001       0.30000001       0.30000001       0.30000001       0.30000001       0.30000001       0.30000001       0.30000001       0.30000001       0.30000001       0.30000001       0.29999998       0.29999998       0.29999998       0.29999998       0.29999998       0.29999998       0.30000001       0.30000001       0.30000001       0.29999998       0.29999998       0.29999998       0.29999998       0.29999998       0.29999998       0.29999998       0.29999998       0.29999998       0.29999998       0.29999998       0.29999998       0.29999998       0.29999998       0.29999998       0.29999998       0.29999998       0.29999998       0.29999998       0.29999998       0.29999998       0.29999998       0.29999998       0.29999998       0.29999998       0.29999998       0.29999998       0.29999998       0.29999998       0.29999998       0.30000001       0.30000001       0.30000001       0.30000001       0.29999998       0.29999998       0.30000001       0.30000001       0.30000001       0.30000001       0.30000001       0.30000001       0.30000001       0.30000001       0.30000001       0.30000001       0.30000001       0.30000001       0.30000001       0.30000001       0.30000001       0.30000001       0.30000001       0.30000001       0.30000001       0.30000001       0.30000001       0.30000001       0.30000001       0.29999998       0.30000001       0.30000001       0.30000001       0.30000001       0.30000001       0.30000001       0.30000001       0.30000001       0.30000001       0.30000001       0.29999998       0.29999998       0.29999998       0.29999998       0.29999998       0.29999998       0.29999998       0.29999998
         0.30000001       0.30000001       0.30000001       0.30000001       0.30000001       0.30000001       0.30000001       0.30000001       0.30000001       0.30000001       0.30000001       0.30000001       0.29999998       0.29999998       0.29999998       0.29999998       0.29999998       0.29999998       0.29999998       0.30000001       0.30000001       0.30000001       0.30000001       0.29999998       0.29999998       0.29999998       0.29999998       0.29999998       0.29999998       0.29999998       0.29999998       0.29999998       0.29999998       0.29999998       0.29999998       0.29999998       0.29999998       0.29999998       0.29999998       0.29999998       0.29999998       0.29999998       0.29999998       0.29999998       0.29999998       0.29999998       0.29999998       0.29999998       0.29999998       0.29999998       0.29999998       0.29999998       0.30000001       0.30000001       0.30000001       0.30000001       0.29999998       0.29999998       0.30000001       0.30000001       0.30000001       0.30000001       0.30000001       0.30000001       0.30000001       0.30000001       0.30000001       0.30000001       0.30000001       0.30000001       0.30000001       0.30000001       0.30000001       0.30000001       0.30000001       0.30000001       0.30000001       0.30000001       0.30000001       0.30000001       0.30000001       0.30000001       0.30000001       0.30000001       0.29999998       0.29999998       0.29999998       0.30000001       0.30000001       0.30000001       0.30000001       0.30000001       0.29999998       0.29999998       0.29999998       0.29999998       0.29999998       0.29999998       0.29999998       0.29999998
         0.30000001       0.30000001       0.30000001       0.30000001       0.30000001       0.30000001       0.30000001       0.30000001       0.30000001       0.30000001       0.30000001       0.30000001       0.29999998       0.29999998       0.29999998       0.29999998       0.29999998       0.29999998       0.30000001       0.30000001       0.30000001       0.30000001       0.30000001       0.29999998       0.29999998       0.29999998       0.29999998       0.29999998       0.29999998       0.29999998       0.29999998       0.29999998       0.29999998       0.29999998       0.29999998       0.29999998       0.29999998       0.29999998       0.29999998       0.29999998       0.29999998       0.29999998       0.29999998       0.29999998       0.29999998       0.29999998       0.29999998       0.29999998       0.29999998       0.29999998       0.29999998       0.30000001       0.30000001       0.30000001       0.30000001       0.29999998       0.29999998       0.30000001       0.30000001       0.30000001       0.30000001       0.30000001       0.30000001       0.30000001       0.30000001       0.30000001       0.30000001       0.30000001       0.30000001       0.30000001       0.30000001       0.30000001       0.30000001       0.30000001       0.30000001       0.30000000       0.30000001       0.30000001       0.30000001       0.30000001       0.30000001       0.30000001       0.30000001       0.30000001       0.29999998       0.29999998       0.29999998       0.30000001       0.30000001       0.30000001       0.30000001       0.30000001       0.29999998       0.29999998       0.29999998       0.29999998       0.29999998       0.29999998       0.29999998       0.29999998
         0.30000001       0.30000001       0.30000001       0.30000001       0.30000001       0.30000001       0.30000001       0.30000001       0.30000001       0.30000001       0.30000001       0.30000001       0.29999998       0.29999998       0.29999998       0.29999998       0.29999998       0.29999998       0.30000001       0.30000001       0.30000001       0.30000001       0.30000001       0.29999998       0.29999998       0.29999998       0.29999998       0.29999998       0.29999998       0.29999998       0.29999998       0.30000001       0.30000001       0.30000001       0.30000001       0.30000001       0.30000001       0.29999998       0.29999998       0.29999998       0.29999998       0.29999998       0.29999998       0.29999998       0.29999998       0.29999998       0.29999998       0.29999998       0.29999998       0.30000001       0.30000001       0.30000001       0.30000001       0.30000001       0.29999998       0.29999998       0.29999998       0.30000001       0.30000001       0.30000001       0.30000001       0.30000001       0.30000001       0.30000001       0.30000001       0.30000001       0.30000001       0.30000001       0.30000001       0.30000001       0.30000001       0.30000001       0.30000001       0.30000001       0.30000000       0.30000000       0.30000001       0.30000001       0.30000001       0.30000001       0.30000001       0.29999998       0.30000001       0.29999998       0.29999998       0.29999998       0.29999998       0.29999998       0.30000001       0.30000001       0.30000001       0.30000001       0.30000001       0.29999998       0.29999998       0.29999998       0.29999998       0.29999998       0.29999998       0.29999998
         0.29999998       0.29999998       0.29999998       0.29999998       0.30000001       0.30000001       0.30000001       0.30000001       0.30000001       0.30000001       0.30000001       0.30000001       0.29999998       0.29999998       0.29999998       0.29999998       0.29999998       0.30000001       0.30000001       0.30000001       0.30000001       0.30000001       0.30000001       0.29999998       0.29999998       0.29999998       0.29999998       0.29999998       0.29999998       0.30000001       0.30000001       0.30000001       0.30000001       0.30000001       0.30000001       0.30000001       0.30000001       0.30000001       0.30000001       0.30000001       0.30000001       0.30000001       0.29999998       0.29999998       0.29999998       0.30000001       0.30000001       0.30000001       0.30000001       0.30000001       0.30000001       0.30000001       0.30000001       0.30000001       0.29999998       0.29999998       0.29999998       0.30000001       0.30000001       0.30000001       0.30000001       0.30000001       0.30000001       0.30000001       0.30000001       0.30000001       0.30000001       0.30000001       0.30000001       0.30000001       0.30000001       0.30000001       0.30000001       0.30000000       0.30000000       0.30000000       0.30000000       0.30000001       0.30000001       0.30000001       0.30000001       0.29999998       0.30000001       0.29999998       0.29999998       0.29999998       0.29999998       0.29999998       0.29999998       0.30000001       0.30000001       0.30000001       0.30000001       0.30000001       0.29999998       0.29999998       0.29999998       0.29999998       0.29999998       0.29999998
         0.29999998       0.29999998       0.29999998       0.29999998       0.29999998       0.29999998       0.30000001       0.30000001       0.30000001       0.30000001       0.30000001       0.30000001       0.29999998       0.29999998       0.29999998       0.29999998       0.29999998       0.30000001       0.30000001       0.30000001       0.30000001       0.30000001       0.30000001       0.30000001       0.30000001       0.30000001       0.30000001       0.30000001       0.30000001       0.30000001       0.30000001       0.30000001       0.30000001       0.30000001       0.30000001       0.30000001       0.30000001       0.30000001       0.30000001       0.30000001       0.30000001       0.30000001       0.30000001       0.30000001       0.30000001       0.30000001       0.30000001       0.30000001       0.30000001       0.30000001       0.30000001       0.30000001       0.30000001       0.29999998       0.29999998       0.29999998       0.30000001       0.30000001       0.30000001       0.30000001       0.30000001       0.30000001       0.30000001       0.30000001       0.30000001       0.30000001       0.30000001       0.30000001       0.30000001       0.30000001       0.30000001       0.30000001       0.30000000       0.30000000       0.30000000       0.30000000       0.30000000       0.30000001       0.30000001       0.30000001       0.29999998       0.30000001       0.30000001       0.29999998       0.29999998       0.29999998       0.29999998       0.29999998       0.29999998       0.29999998       0.30000001       0.30000001       0.30000001       0.30000001       0.30000001       0.29999998       0.29999998       0.29999998       0.29999998       0.29999998
         0.29999998       0.29999998       0.29999998       0.29999998       0.29999998       0.29999998       0.29999998       0.30000001       0.30000001       0.30000001       0.30000001       0.30000001       0.30000001       0.29999998       0.29999998       0.30000001       0.30000001       0.30000001       0.30000001       0.30000001       0.30000001       0.30000001       0.30000001       0.30000001       0.30000001       0.30000001       0.30000001       0.30000001       0.30000001       0.30000001       0.30000001       0.30000001       0.30000001       0.30000001       0.30000001       0.30000001       0.30000001       0.30000001       0.30000001       0.30000001       0.30000001       0.30000001       0.30000001       0.30000001       0.30000001       0.30000001       0.30000001       0.30000001       0.30000001       0.30000001       0.30000001       0.30000001       0.29999998       0.29999998       0.29999998       0.30000001       0.30000001       0.30000001       0.30000001       0.30000001       0.30000001       0.30000001       0.30000001       0.30000001       0.30000001       0.30000001       0.30000001       0.30000001       0.30000001       0.30000001       0.30000001       0.30000001       0.30000000       0.30000000       0.30000000       0.30000000       0.30000000       0.30000001       0.30000001       0.30000001       0.29999998       0.30000001       0.30000001       0.30000001       0.29999998       0.29999998       0.29999998       0.29999998       0.29999998       0.29999998       0.29999998       0.29999998       0.30000001       0.30000001       0.30000001       0.30000001       0.30000001       0.30000001       0.29999998       0.29999998