# File generated by Flopy version 3.9.3 on 10/06/2025 at 15:22:27.
BEGIN options
END options

BEGIN griddata
  porosity
    INTERNAL  FACTOR  1.0
         0.22550720       0.23428397       0.24164492       0.24637759       0.25237867       0.26338384       0.27894285       0.28105003       0.29890475       0.30936328       0.31226265       0.31249532       0.31181237       0.30047983       0.28537130       0.26479274       0.23912705       0.22216524       0.21706778       0.22536421       0.23647097       0.24698198       0.25960273       0.26744017       0.27224928       0.27786970       0.27042651       0.26187202       0.26687974       0.27325743       0.27850986       0.29364926       0.30915931       0.30996576       0.31492898       0.31474572       0.32069612       0.32011825       0.30141422       0.28756499       0.28982142       0.30355439       0.30033597       0.29009512       0.27235770       0.25497380       0.24222402       0.25201252       0.26702532       0.25828084       0.24343672       0.23685732       0.23775238       0.24998316       0.26318830       0.27327579       0.29637474       0.30581847       0.31616092       0.33491489       0.33619139       0.32730523       0.31429034       0.31008714       0.30547360       0.29417646       0.29176188       0.29135284       0.29577819       0.31051335       0.32052991       0.33245039       0.29603198       0.29603198       0.29603198       0.29603198       0.29603198       0.29603198       0.29603198       0.29603198       0.29603198       0.29603198       0.27394527       0.28421000       0.28690991       0.28991970       0.28257197       0.28962606       0.31110799       0.33460674       0.33660409       0.33538169       0.32180807       0.32609782       0.32745925       0.33196905       0.33726007       0.34522170       0.34111691       0.33798835
         0.24372189       0.24055742       0.24199516       0.24970496       0.26335806       0.27396420       0.28728077       0.30134484       0.31567356       0.31188750       0.30265972       0.30089095       0.30159807       0.28960156       0.27221411       0.25226310       0.23060019       0.21888760       0.21590510       0.22606960       0.24435459       0.25967354       0.26940763       0.27891093       0.27852660       0.27791578       0.27621004       0.26489216       0.27633592       0.28565505       0.29860163       0.30924532       0.31715336       0.31338021       0.31479520       0.31288666       0.32059342       0.31573036       0.30037484       0.29439679       0.29862174       0.29390806       0.28415066       0.27296016       0.26218763       0.25078979       0.24612080       0.25243810       0.26989302       0.26470160       0.25105262       0.24387354       0.24741738       0.26237610       0.27572542       0.28999168       0.30548951       0.31873780       0.33337498       0.35273698       0.35012186       0.34650135       0.32737109       0.32266113       0.31874308       0.30243838       0.29247332       0.29340181       0.29869857       0.30614695       0.31278020       0.29603198       0.29603198       0.29603198       0.29603198       0.29603198       0.29603198       0.29603198       0.29603198       0.29603198       0.29603198       0.28678516       0.28639773       0.29568213       0.30044594       0.29746082       0.28959778       0.28691268       0.30776605       0.32273990       0.32338402       0.32073173       0.31578752       0.32129923       0.32582882       0.33247715       0.32758141       0.33617288       0.33345178       0.32691151
         0.26641759       0.25302517       0.24943262       0.25754490       0.26796356       0.27774629       0.29327348       0.31482369       0.32117927       0.31619704       0.30533066       0.29551658       0.29389742       0.27619672       0.27013257       0.24782152       0.23296653       0.22307357       0.22407342       0.23645827       0.25660506       0.27163744       0.27283320       0.28495625       0.28167778       0.27704436       0.27820963       0.28626502       0.29496691       0.30459273       0.31023836       0.30621743       0.30970290       0.31126386       0.30816594       0.30895248       0.31453693       0.30962601       0.30640653       0.30667368       0.30254123       0.29165903       0.28953642       0.27995241       0.26908633       0.26217845       0.26274335       0.27230513       0.28226191       0.27250963       0.26048923       0.25226459       0.25727972       0.26863557       0.28447491       0.29871616       0.32252923       0.34165534       0.35843840       0.37568313       0.38102785       0.36533359       0.34346312       0.32654610       0.31855610       0.30235720       0.29405829       0.29184335       0.29698947       0.30322450       0.30601981       0.31966618       0.29603198       0.29603198       0.29603198       0.29603198       0.29603198       0.29603198       0.29603198       0.29603198       0.28989959       0.29049379       0.29446799       0.29367566       0.29934564       0.29666969       0.28966579       0.28391814       0.29396617       0.30521899       0.31453779       0.30741304       0.30111599       0.31235567       0.32111201       0.32818520       0.32148522       0.32954699       0.32706624       0.32181543
         0.28250715       0.27047265       0.26688620       0.26275644       0.27133381       0.28545094       0.30890077       0.32386649       0.31722328       0.31129771       0.30739439       0.30024627       0.29273546       0.28045526       0.27423671       0.25287837       0.23548536       0.22487168       0.22657716       0.24050951       0.25783932       0.27235812       0.28805521       0.29157189       0.28546852       0.27907592       0.27871946       0.28503793       0.28519654       0.28628385       0.29496753       0.29928923       0.29843476       0.30692452       0.30545872       0.30399248       0.30572957       0.29955646       0.30488020       0.30746171       0.29811278       0.29830125       0.29722595       0.29190931       0.28340754       0.27903250       0.28592175       0.29280192       0.30035764       0.29333049       0.28745678       0.28203186       0.28159872       0.28655598       0.30138791       0.31383878       0.33590558       0.35363269       0.37535098       0.39637315       0.40000001       0.37653291       0.34706655       0.32719472       0.30449605       0.28680348       0.27888578       0.27967882       0.29210952       0.29784021       0.30275783       0.32794183       0.34035683       0.33737892       0.29603198       0.29603198       0.29338235       0.29367816       0.30001053       0.29832500       0.29450005       0.29284614       0.29391706       0.30101278       0.30549598       0.28778267       0.28179675       0.27346009       0.27448985       0.28514135       0.29482234       0.29475561       0.30251998       0.31703481       0.32997438       0.33163121       0.32035029       0.32895303       0.32967535       0.32053092
         0.29339194       0.28224856       0.28028601       0.27645040       0.28313321       0.29827428       0.31877413       0.33461809       0.32629398       0.32614189       0.31946626       0.31661806       0.30391517       0.28551081       0.27850896       0.26952484       0.24810907       0.23699443       0.23321864       0.24118558       0.25756094       0.27817863       0.30068129       0.30871049       0.29381034       0.27901849       0.27673322       0.27761468       0.27037126       0.27817816       0.28913209       0.29619783       0.29958081       0.30399060       0.31008047       0.30537260       0.30371138       0.29756171       0.30652857       0.30913872       0.29196575       0.29175639       0.30097198       0.29826054       0.29550722       0.29931182       0.30396923       0.31048498       0.30960077       0.30726495       0.31034920       0.30672261       0.30334568       0.30383384       0.32353544       0.33412778       0.35250899       0.37123784       0.39371470       0.40000001       0.40000001       0.38299546       0.35766587       0.32657588       0.30200946       0.27879661       0.26615280       0.26703140       0.27831495       0.28658748       0.29480359       0.32266933       0.33435172       0.32792622       0.31180716       0.30005616       0.29245576       0.29823387       0.30417651       0.31110114       0.30289495       0.29701206       0.29082361       0.28845140       0.28954861       0.28682959       0.27084485       0.26094395       0.25729141       0.27905425       0.30018297       0.30812654       0.31317416       0.32801720       0.33161545       0.33096215       0.32903022       0.31993505       0.32024392       0.31795511
         0.30392206       0.29520863       0.29053614       0.28679475       0.28667584       0.30398467       0.32610574       0.33266082       0.32314694       0.32260063       0.32070124       0.31937984       0.30754638       0.29503539       0.28889185       0.27640304       0.26576051       0.25142908       0.24872780       0.25030559       0.27052099       0.28831285       0.30837736       0.31372643       0.29562128       0.28042179       0.28129834       0.27814722       0.26833409       0.27775943       0.28571886       0.29702771       0.29835704       0.29780990       0.30524129       0.30283132       0.29990774       0.29503796       0.28940129       0.29410467       0.28934547       0.29354489       0.30677363       0.30866969       0.30298102       0.31106907       0.31391507       0.32052892       0.32235968       0.31935593       0.32165518       0.32538739       0.32494679       0.32318380       0.33731556       0.34192860       0.36192107       0.38114512       0.39790320       0.40000001       0.40000001       0.38775805       0.35825565       0.32724878       0.29996890       0.28057927       0.26411104       0.25895751       0.26495409       0.28627828       0.29672056       0.32026190       0.32744685       0.32105842       0.30150068       0.29931033       0.29779118       0.30142531       0.31421638       0.31816241       0.30982623       0.29438624       0.27823839       0.27423748       0.27627197       0.26650870       0.25328988       0.24890547       0.24818656       0.27306664       0.29841697       0.31468350       0.32453111       0.32675439       0.32845083       0.31254858       0.29963747       0.29909858       0.29871675       0.30845866
         0.29955018       0.28998739       0.28183579       0.27947471       0.29488871       0.30668685       0.32290667       0.33251953       0.32666799       0.32280338       0.31835806       0.31426933       0.30957228       0.30250260       0.29723060       0.28398308       0.27506334       0.26768926       0.25945622       0.25719166       0.27762431       0.29204005       0.31296557       0.31071156       0.30724961       0.29140028       0.27452666       0.26493889       0.26404107       0.27570328       0.28031588       0.30182326       0.29780811       0.29089314       0.29624578       0.29588127       0.29463038       0.29091674       0.28488684       0.27403644       0.27252105       0.29299742       0.30571654       0.31325760       0.33007801       0.32024530       0.32498950       0.33055538       0.33650696       0.34460124       0.33588046       0.33245510       0.34346008       0.34072608       0.34782305       0.35308570       0.36162114       0.37344074       0.39312389       0.39872721       0.39204013       0.38180006       0.35834798       0.32331771       0.30313349       0.27983633       0.26815838       0.25810605       0.25980008       0.28091884       0.29621062       0.30980271       0.31125695       0.31005532       0.30202889       0.30158156       0.30313671       0.30421257       0.31417951       0.31856576       0.31295228       0.29393572       0.26881146       0.26280656       0.25545585       0.24221997       0.23336196       0.23913865       0.24763775       0.27040330       0.28949299       0.31101617       0.32349405       0.31567717       0.32109171       0.30925050       0.30169460       0.30025664       0.30905154       0.32517496
         0.27642041       0.26937065       0.26794800       0.26937214       0.28968617       0.30803397       0.31892237       0.33086270       0.33231902       0.32450256       0.31787041       0.31739280       0.31396821       0.30598688       0.30379376       0.28889751       0.27534515       0.27243602       0.26947841       0.27422732       0.29290906       0.30447742       0.31734458       0.32139328       0.31619960       0.29193118       0.26988021       0.26449654       0.26089102       0.27607876       0.28436697       0.29452538       0.29009765       0.29183042       0.29375580       0.29506874       0.30126667       0.28385001       0.26906297       0.25706500       0.26030546       0.27399200       0.28785053       0.29992738       0.31272659       0.31685013       0.32673806       0.34401035       0.35304630       0.35541186       0.34445339       0.34465161       0.35815319       0.35931897       0.36432642       0.36891288       0.36815101       0.37369156       0.38526064       0.38335973       0.38617510       0.36242390       0.34127238       0.32050404       0.29744381       0.28128615       0.27750304       0.26215097       0.26104647       0.27389261       0.29079175       0.30190447       0.30567437       0.30897313       0.30741167       0.30513573       0.31072229       0.31888294       0.31337377       0.32741541       0.31740850       0.29548073       0.26698893       0.25942361       0.24811018       0.23538944       0.22077203       0.23143682       0.24815853       0.26282725       0.28645352       0.30635491       0.31917623       0.31571808       0.30291623       0.29418731       0.30424806       0.31818676       0.34546098       0.35011116
         0.26750690       0.25646937       0.25496787       0.26230067       0.27920598       0.29743284       0.31277087       0.32336015       0.32453781       0.31595969       0.30685496       0.30975351       0.31183073       0.30398235       0.29866502       0.28914419       0.28255117       0.28553641       0.28916800       0.29709765       0.31004855       0.31379643       0.32308415       0.32659766       0.31391925       0.29024416       0.27881193       0.28178656       0.28526601       0.29935932       0.30157322       0.29384759       0.29789782       0.29880211       0.31070352       0.30551296       0.30535358       0.28679898       0.26469615       0.25105515       0.24759017       0.25980255       0.27222681       0.27699658       0.28422078       0.30072609       0.31535900       0.33157894       0.34159634       0.34732276       0.34596819       0.35119236       0.35887250       0.36014512       0.35337237       0.35358498       0.34702414       0.35127050       0.36984980       0.37235081       0.37688538       0.35079372       0.32720876       0.29776812       0.28447390       0.27609119       0.27239385       0.25982553       0.26693580       0.27052823       0.29173654       0.30620307       0.30244282       0.30775589       0.31313214       0.32381931       0.33018145       0.33043924       0.33068892       0.33168805       0.32227358       0.29138196       0.26424161       0.25566417       0.24337478       0.22944482       0.21907532       0.22920722       0.23730093       0.24740136       0.25999156       0.28276640       0.29475150       0.29873264       0.28979406       0.28630793       0.30096820       0.32443392       0.34572139       0.35621014
         0.26501754       0.25174245       0.25045729       0.25574440       0.26873121       0.28581700       0.30129510       0.31118470       0.30689949       0.30172303       0.29488304       0.29715812       0.29728368       0.29643556       0.29282001       0.28736338       0.29120904       0.29080752       0.29379657       0.29932514       0.29475865       0.30252662       0.30658734       0.30936235       0.30145463       0.29156131       0.29326585       0.29651865       0.30584019       0.31675941       0.31485268       0.31179595       0.31284606       0.30583909       0.31832600       0.31278408       0.30436283       0.28268778       0.26548138       0.25474814       0.24828653       0.25180471       0.26067260       0.26037726       0.26297081       0.28208670       0.29827809       0.31750822       0.32062721       0.33255216       0.33645907       0.33847818       0.34964812       0.34663421       0.33554617       0.33522087       0.33506361       0.33707190       0.35510656       0.36117733       0.34760201       0.32591993       0.30292329       0.28047290       0.27740684       0.28002149       0.27592137       0.26604566       0.27092379       0.27137801       0.28289098       0.29533300       0.30884865       0.31637624       0.32784811       0.33726856       0.34844679       0.35051367       0.35296324       0.34823909       0.32220966       0.29400644       0.27105096       0.25459781       0.24426088       0.23522830       0.22987361       0.23091626       0.23406471       0.24060936       0.24536882       0.25992039       0.26347911       0.27830398       0.27407256       0.28077647       0.29446295       0.31874794       0.33803925       0.34931287
         0.26227158       0.25485969       0.24723405       0.24912228       0.25972545       0.27229643       0.28180730       0.29205510       0.28860775       0.28794974       0.28196937       0.28985164       0.28711647       0.28792930       0.28725114       0.28609636       0.29116845       0.28919652       0.28633004       0.28348601       0.28416494       0.28183994       0.28214008       0.27707690       0.28753585       0.29088798       0.30085102       0.30869439       0.32422355       0.32386822       0.32603174       0.32331362       0.32793930       0.32831034       0.32870689       0.31439802       0.30205792       0.28717050       0.27535611       0.26351240       0.25850451       0.24941784       0.25953493       0.25642952       0.25908214       0.27547142       0.28977308       0.30758822       0.30846292       0.31733632       0.32586953       0.29603198       0.29603198       0.29603198       0.29603198       0.32598385       0.33613718       0.34033772       0.34191254       0.34102061       0.32745761       0.30744827       0.28331241       0.26868814       0.27215713       0.28125596       0.28169623       0.27900422       0.28219163       0.28508103       0.29089192       0.30151850       0.31538999       0.32721490       0.33869907       0.34682682       0.35770938       0.36469501       0.36191800       0.35294959       0.32820091       0.29856613       0.27224103       0.25904441       0.24829067       0.24775487       0.23879468       0.23349749       0.23186362       0.22476773       0.22970037       0.23285013       0.24021377       0.25298744       0.25508162       0.26049933       0.27854511       0.30237845       0.32269400       0.33934188
         0.26846987       0.26025528       0.24790663       0.24150923       0.25096983       0.26236185       0.26792201       0.27667415       0.27340502       0.27020189       0.27463168       0.29068863       0.29837015       0.30192208       0.30093771       0.29015046       0.29151952       0.28926346       0.28225961       0.26746058       0.26324338       0.26784259       0.26397771       0.25863931       0.27910414       0.29909730       0.30714312       0.31940281       0.31957257       0.31504199       0.32086185       0.32739958       0.33106852       0.33621913       0.33733350       0.32201701       0.31405255       0.30130875       0.29230031       0.28056359       0.27098638       0.25889799       0.25378361       0.25319090       0.25507602       0.27065465       0.29061094       0.30090865       0.29855344       0.31125355       0.29603198       0.29603198       0.29603198       0.29603198       0.29603198       0.29603198       0.29603198       0.33088857       0.33618432       0.33307654       0.32539332       0.31447613       0.28696212       0.27418604       0.27730176       0.28426445       0.29845479       0.29429170       0.29431203       0.29558447       0.29876623       0.31053874       0.31899905       0.33799836       0.35772327       0.36203662       0.36034155       0.36655873       0.36856434       0.35060960       0.32894972       0.30130637       0.28109708       0.26215521       0.25914076       0.25503224       0.25262579       0.23954777       0.23442109       0.22414728       0.21960394       0.21967697       0.22585265       0.22964394       0.23029467       0.23869148       0.25265679       0.27653953       0.29476047       0.32460794
         0.27205604       0.26019129       0.24856867       0.24255967       0.24394672       0.25820616       0.26667359       0.26929057       0.26754180       0.27179205       0.28188550       0.30243766       0.32756746       0.32825854       0.32261890       0.30601734       0.28545463       0.27976722       0.28341156       0.27036557       0.25881639       0.25618091       0.25676107       0.26699740       0.27747011       0.28972101       0.30288446       0.31733358       0.32198727       0.31122196       0.30754560       0.31483343       0.32710838       0.33355010       0.33791870       0.33532396       0.32411480       0.31452906       0.30541742       0.28706962       0.27569821       0.26246893       0.25967479       0.26926032       0.26886746       0.28988937       0.30689192       0.31232464       0.30897027       0.31922168       0.29603198       0.29603198       0.29603198       0.29603198       0.29603198       0.29603198       0.29603198       0.29603198       0.33709168       0.33894479       0.33260956       0.32063621       0.29984388       0.28748846       0.29094556       0.29668993       0.30390033       0.30940524       0.30695707       0.30943301       0.30373159       0.31130388       0.32453975       0.34548965       0.36867070       0.36606565       0.35701305       0.35898209       0.35613993       0.34128973       0.32830340       0.30648929       0.29115266       0.27969611       0.26880330       0.27288327       0.27506024       0.25661087       0.24824886       0.23227693       0.22191651       0.22066815       0.23172893       0.22996904       0.22291538       0.22915423       0.24065389       0.25948426       0.28140429       0.31898147
         0.26275575       0.25521070       0.24772541       0.24453421       0.24823700       0.26113635       0.26424083       0.26561654       0.27301800       0.28226069       0.29403788       0.31624550       0.34647775       0.35181946       0.34445286       0.32387343       0.29234573       0.28236100       0.28726384       0.27273297       0.25878945       0.24927102       0.25766513       0.27160677       0.28321213       0.28796077       0.29875344       0.30906013       0.31654957       0.30620265       0.29482329       0.30819121       0.31617942       0.32115516       0.33907485       0.33930683       0.32957369       0.32100818       0.29913935       0.28876737       0.28185430       0.27582604       0.28358024       0.29476771       0.29983434       0.30843541       0.32192376       0.33536458       0.32715714       0.33049327       0.32045516       0.29603198       0.29603198       0.29603198       0.29603198       0.29603198       0.29603198       0.34992093       0.34346133       0.34977320       0.34298310       0.33784381       0.32891622       0.31958085       0.31157789       0.30079842       0.30057228       0.30719224       0.31417140       0.31684500       0.30970821       0.31624866       0.32672438       0.34706068       0.36443052       0.36104965       0.35945350       0.34873626       0.34878582       0.34330758       0.32768688       0.30620140       0.29021206       0.28904393       0.28292912       0.29072335       0.29142770       0.28040606       0.26613882       0.25536242       0.24545653       0.23753004       0.23498160       0.23877060       0.23192604       0.22765492       0.23647986       0.24951652       0.27845120       0.31486699
         0.25831535       0.25075877       0.24427372       0.24117595       0.25294626       0.25677118       0.26213241       0.27384979       0.28966048       0.30996841       0.32133016       0.33789831       0.35679066       0.36377019       0.35487303       0.32673135       0.29761449       0.28999740       0.28143269       0.26529235       0.25647107       0.25446489       0.26029745       0.27406627       0.29135484       0.29512697       0.29804426       0.30081710       0.30456132       0.29838747       0.28373596       0.28795189       0.29589367       0.31029755       0.33016557       0.32712322       0.31750205       0.31183416       0.30744532       0.28887209       0.29024574       0.29391488       0.29227781       0.31408551       0.32931724       0.33766663       0.34887421       0.35839021       0.34558913       0.33118668       0.32440171       0.31791213       0.29603198       0.29603198       0.29603198       0.29603198       0.34708974       0.35084984       0.35124207       0.35706353       0.35729566       0.35636109       0.35689473       0.34872741       0.33680475       0.32001540       0.30194080       0.29571345       0.30432135       0.29827303       0.30182725       0.31222492       0.32195035       0.33708173       0.35043177       0.35085660       0.34207040       0.34436595       0.34674531       0.34593755       0.33399296       0.31389555       0.30235431       0.31018254       0.30824640       0.30274054       0.30436960       0.30086300       0.28682771       0.27403593       0.25795802       0.25275767       0.24679019       0.25463155       0.24946834       0.23979887       0.24808924       0.25167307       0.27096441       0.29751229
         0.25854462       0.24912117       0.24599878       0.24589790       0.25168452       0.25883043       0.26862746       0.28363195       0.30363584       0.33006024       0.34922633       0.35807407       0.36687377       0.36729831       0.34222019       0.32214937       0.29904976       0.28244072       0.27972057       0.26683289       0.26335853       0.26174662       0.26831421       0.28184444       0.29861584       0.30271509       0.30230194       0.29976049       0.30157137       0.29060560       0.26956308       0.26962847       0.26839954       0.28985542       0.31322449       0.31998843       0.31538787       0.30933493       0.30129239       0.29719955       0.30175710       0.30552980       0.32191634       0.34995511       0.36213803       0.36653149       0.36980423       0.37358886       0.35718954       0.33406496       0.32522488       0.32070336       0.31554466       0.31988326       0.33964691       0.35093260       0.35196936       0.35576752       0.36550051       0.36644930       0.37476969       0.37128121       0.36982518       0.36230981       0.35182855       0.33981892       0.31594983       0.30216762       0.29572636       0.29049730       0.29800373       0.30626544       0.31394127       0.32728472       0.33281463       0.33694509       0.33335233       0.33322197       0.33261979       0.34563321       0.34514266       0.32927904       0.32591265       0.32629150       0.33016458       0.31664056       0.30876428       0.30847970       0.30467883       0.29078132       0.27402771       0.26996267       0.26935288       0.27933887       0.27524179       0.26141208       0.25920942       0.26355860       0.27412656       0.29020852
         0.26048997       0.25709873       0.25591004       0.25320920       0.25983173       0.26506847       0.28098801       0.29296607       0.31044829       0.34300286       0.35876489       0.37361902       0.37615767       0.36099845       0.33702108       0.31669310       0.29761782       0.28188691       0.26942074       0.25325066       0.25462359       0.26794496       0.28544453       0.29656562       0.31312785       0.32266709       0.30876520       0.29456383       0.29878178       0.28779379       0.26547134       0.25884473       0.26601309       0.29242975       0.31555837       0.32448533       0.32241803       0.31461707       0.30472112       0.30627725       0.31522679       0.32514474       0.34457603       0.36954293       0.38205898       0.38870963       0.38418815       0.37880403       0.35872179       0.33617392       0.32804868       0.31959403       0.31305701       0.31343645       0.33715227       0.35011068       0.35612264       0.35815722       0.36146307       0.37100732       0.37749577       0.38183948       0.38313481       0.37305033       0.36911550       0.35925665       0.34235492       0.31865188       0.30158064       0.28770632       0.28869477       0.30403173       0.31614351       0.31683537       0.31312364       0.32387245       0.32726431       0.33098778       0.33388177       0.33940193       0.34880316       0.34662440       0.33783430       0.33714354       0.33979777       0.32007959       0.31057832       0.30727419       0.30683804       0.30281872       0.29507178       0.28853837       0.28861672       0.29884309       0.29667899       0.28232995       0.27321702       0.27597398       0.28536847       0.29838258