# File generated by Flopy version 3.9.1 on 06/09/2025 at 13:02:09.
BEGIN options
END options

BEGIN packagedata
  GWFHEAD  FILEIN  c:\Users\emmal\Documents\Github\ArchPy\examples\14_archpy2modflow_paper\layered_homo\test.hds
  GWFBUDGET  FILEIN  c:\Users\emmal\Documents\Github\ArchPy\examples\14_archpy2modflow_paper\layered_homo\test.cbc
END packagedata

