# File generated by Flopy version 3.9.2 on 07/03/2025 at 16:34:12.
BEGIN options
END options

BEGIN griddata
  porosity
    INTERNAL  FACTOR  1.0
         0.29948071       0.29714581       0.30058527       0.30765682       0.31266209       0.30856228       0.29724216       0.28359807       0.27075619       0.26419425       0.27461120       0.28833798       0.30816382       0.33743805       0.36748040       0.36975336       0.35758790       0.33029205       0.29606590       0.28640991       0.28564125       0.28969246       0.29849353       0.30738565       0.32178593       0.33557573       0.34944552       0.35445926       0.36404976       0.37069401       0.37521246       0.36641151       0.34587449       0.32839489       0.31209809       0.29913151       0.28648174       0.27126974       0.25703716       0.25137967       0.25682309       0.26906964       0.27588087       0.27714655       0.27852255       0.28251791       0.28292280       0.28619426       0.28413782       0.28379709       0.27847663       0.27350703       0.27405214       0.28926045       0.31208587       0.34245393       0.36641428       0.37142333       0.36908802       0.35739052       0.32821691       0.29989219       0.28597692       0.27783462       0.28620377       0.30007556       0.31772715       0.31716585       0.31190908       0.30557269       0.28841856       0.27695346       0.26648951       0.27025509       0.28788567       0.30017051       0.30734706       0.31492254       0.32447365       0.32355163       0.30697548       0.28639194       0.28350985       0.27890915       0.28056255       0.27514195       0.28017387       0.28910652       0.30495289       0.31410995       0.32617524       0.33151728       0.32578635       0.32697940       0.33543324       0.34157532       0.33440202       0.32822591       0.33355650       0.32400122
         0.29038256       0.29340142       0.30508760       0.31799120       0.32095984       0.32254308       0.31720683       0.30813399       0.28640258       0.27558267       0.27692306       0.29109836       0.30755162       0.33016667       0.34441841       0.35711566       0.35811001       0.33572787       0.29950032       0.28385487       0.27256885       0.26844695       0.28140381       0.29580954       0.30576888       0.32281235       0.34699738       0.35445186       0.36168808       0.36724222       0.36104298       0.35102561       0.32810432       0.30436897       0.29432005       0.28706816       0.27238977       0.25705960       0.24524117       0.24210195       0.24439469       0.26233321       0.27899799       0.28411615       0.29003045       0.29359812       0.29305163       0.28366548       0.27913004       0.27950731       0.27522597       0.27494699       0.26574662       0.27225718       0.30190676       0.33293006       0.36270463       0.37579843       0.38228637       0.36858457       0.33212382       0.30103606       0.28346169       0.27110741       0.28411305       0.30118048       0.31070542       0.30344227       0.29821181       0.28691173       0.27256891       0.25571936       0.24763529       0.25014022       0.26984811       0.28365451       0.29536447       0.30428571       0.30999535       0.31908587       0.31308150       0.30455044       0.30612832       0.29924095       0.29595083       0.29315636       0.29845652       0.30281264       0.31564420       0.32663754       0.32579261       0.31447324       0.31371519       0.31766936       0.32712117       0.32443687       0.32103801       0.32345319       0.32870400       0.32540685
         0.28510514       0.29717770       0.30303854       0.32228172       0.32711545       0.32691565       0.32138553       0.30633223       0.29085761       0.27501270       0.26913849       0.28602764       0.29813957       0.31269762       0.33394733       0.34929588       0.34705302       0.32486847       0.29988793       0.27731127       0.26252756       0.25818405       0.27291790       0.28152519       0.29047143       0.31397325       0.34144720       0.35594591       0.35672307       0.35271570       0.34465885       0.32263166       0.29829440       0.27652472       0.27402550       0.26386937       0.25615194       0.24460788       0.23567188       0.23741785       0.24124217       0.25827888       0.27420199       0.28994957       0.28879768       0.29518396       0.29370186       0.26406664       0.26510394       0.27842769       0.27665308       0.26855850       0.25890166       0.26358524       0.28051275       0.31642824       0.35129264       0.37755528       0.38287753       0.37149006       0.34019265       0.30158296       0.28159806       0.27273893       0.28481507       0.29427606       0.30047387       0.29382223       0.28302813       0.26974836       0.25565875       0.24139541       0.23751716       0.23433429       0.24426813       0.25916398       0.27363345       0.28343800       0.29434180       0.30780795       0.31150132       0.30825984       0.31571427       0.32259208       0.31685033       0.31913796       0.32295024       0.32366827       0.32146862       0.32522178       0.31644297       0.30588034       0.29992414       0.30031031       0.30489951       0.30802992       0.31926408       0.32228586       0.32114449       0.32254559
         0.27280319       0.27965212       0.30061132       0.31763771       0.33973932       0.35235935       0.34033313       0.31912801       0.29343507       0.27375612       0.26616418       0.27479196       0.28920004       0.30330238       0.32139668       0.33765370       0.33819595       0.31737083       0.29485139       0.28637782       0.27879179       0.26485690       0.26768854       0.27226469       0.28225383       0.30549091       0.33679482       0.35689595       0.35773587       0.34186980       0.32405975       0.30002329       0.27600539       0.26413324       0.26330051       0.25668639       0.25204787       0.24048683       0.23182487       0.23554702       0.24213295       0.25980270       0.27187169       0.28522441       0.28070906       0.27714774       0.27534986       0.25889695       0.26098043       0.27522174       0.27073479       0.26467165       0.25547591       0.26602092       0.27931243       0.30781430       0.34726414       0.37037191       0.37738156       0.36524853       0.33752352       0.29937804       0.27746013       0.26948723       0.28105479       0.29365420       0.29740548       0.28615659       0.27630848       0.26315993       0.24823183       0.23369615       0.22923768       0.22466896       0.22329035       0.23697886       0.24904685       0.26167306       0.27751511       0.29236284       0.30820990       0.30846688       0.32080635       0.33258268       0.33110902       0.34237960       0.34331152       0.33564579       0.33147010       0.32433197       0.30891219       0.29239199       0.28805748       0.28323504       0.28785232       0.29084587       0.30528626       0.30792502       0.31406838       0.32643732
         0.25720635       0.26785469       0.29472175       0.31764120       0.34635890       0.35399988       0.35612023       0.33386043       0.29682928       0.29126725       0.28205955       0.27460307       0.28169221       0.29436278       0.31076565       0.32713491       0.32324392       0.31657755       0.30456236       0.30202249       0.29503840       0.28100768       0.27779961       0.27579454       0.28196806       0.29692739       0.32873902       0.34259415       0.34467828       0.33434311       0.32012528       0.28901038       0.26884964       0.25176871       0.25099364       0.24969845       0.24945430       0.24300990       0.23229459       0.23542018       0.24948487       0.26489392       0.27670735       0.28030849       0.27685130       0.26620406       0.26621804       0.25292838       0.25375497       0.26565510       0.25970536       0.25821868       0.26054874       0.26837310       0.28075463       0.30793074       0.33791599       0.35704529       0.35480356       0.35169330       0.33606386       0.31130409       0.28656504       0.27881402       0.27990258       0.27960971       0.26978359       0.27253833       0.27467591       0.26044419       0.25036585       0.23918891       0.23258156       0.22641937       0.21693319       0.22244012       0.23392196       0.24118690       0.25836441       0.27608463       0.29120719       0.30347419       0.32615682       0.34217155       0.35189542       0.35762820       0.35477772       0.34752658       0.34037182       0.33121079       0.30453506       0.28254655       0.28007460       0.27289745       0.27473223       0.27552086       0.28725818       0.30511251       0.30913424       0.31933978
         0.25052071       0.26105645       0.28608719       0.31434453       0.33412877       0.34522238       0.34629735       0.32787120       0.30431110       0.29294047       0.28275862       0.28171724       0.27741855       0.28829584       0.29759803       0.30944225       0.32143921       0.32465366       0.31540093       0.31479424       0.31383216       0.30260915       0.28920028       0.28205907       0.27875188       0.29607552       0.31426924       0.32910645       0.32944837       0.32140106       0.31488758       0.28863388       0.26154488       0.24229890       0.24380606       0.25436717       0.25317791       0.25269276       0.24775140       0.25118792       0.26732719       0.28239533       0.28273192       0.27416006       0.26968667       0.25657904       0.25731757       0.24687655       0.24358745       0.25385615       0.25836384       0.25927851       0.26409605       0.27454942       0.29076484       0.30327827       0.32167912       0.33666286       0.33493671       0.33849216       0.33384231       0.31288239       0.29629591       0.29106975       0.27620572       0.26746550       0.25894842       0.25725064       0.26597455       0.26078945       0.25133744       0.25076008       0.24144781       0.23131391       0.21422040       0.21460994       0.21563482       0.22293018       0.24271439       0.25730115       0.27113187       0.29197899       0.31496233       0.33216140       0.35149768       0.36674586       0.36093140       0.35510063       0.34145620       0.32602540       0.30859345       0.28818849       0.28079620       0.27188510       0.27565658       0.27917156       0.28405884       0.29525462       0.30562067       0.31282139
         0.25432354       0.27048561       0.29060617       0.31046438       0.32224447       0.33159503       0.33520648       0.32161570       0.30487773       0.29012692       0.27648064       0.27819148       0.28018767       0.28452495       0.28339139       0.29540381       0.31739041       0.33360183       0.33562723       0.33202681       0.32679641       0.31156844       0.30359632       0.29724106       0.29146466       0.29836378       0.30604377       0.32018641       0.31042904       0.31205931       0.30707908       0.28601038       0.26475978       0.24845231       0.24047737       0.25087035       0.24961819       0.25349411       0.25934702       0.26722625       0.28645626       0.29518181       0.29045042       0.27806708       0.27523893       0.26773170       0.25944218       0.24739432       0.24944881       0.25619859       0.25967503       0.26451373       0.27468401       0.28663760       0.29389974       0.31227657       0.32462427       0.33019227       0.33279970       0.33818215       0.33653450       0.31801683       0.30359545       0.29432219       0.28796208       0.26875246       0.25352788       0.24829595       0.25752449       0.25855029       0.25569788       0.25667104       0.24763054       0.23507577       0.22482805       0.21941003       0.21452861       0.21559791       0.22900066       0.23648064       0.25693974       0.27683136       0.30033201       0.30999458       0.32599702       0.34422997       0.35335448       0.35196024       0.34593937       0.33526006       0.31830829       0.30287012       0.29330346       0.28259137       0.28356794       0.28862503       0.28468269       0.29011533       0.30055004       0.31018472
         0.25644079       0.27652970       0.29306060       0.30712128       0.31796783       0.33489457       0.33556759       0.32257047       0.30829054       0.28731301       0.27617842       0.27701375       0.27309915       0.27311066       0.27540931       0.29748854       0.32055661       0.33786407       0.34405592       0.34818491       0.33905369       0.32700187       0.31227475       0.30421042       0.29731196       0.29649615       0.29023784       0.29606882       0.29513723       0.29175335       0.28754273       0.29007274       0.28236467       0.26916984       0.25906473       0.25564253       0.25964004       0.26658264       0.28033021       0.28272271       0.29645175       0.30745828       0.30693868       0.29309109       0.28623191       0.27887610       0.26396146       0.25393805       0.26061884       0.26774377       0.27861977       0.28383520       0.28742763       0.29027283       0.30016574       0.31390619       0.31447479       0.32607627       0.32162350       0.32921714       0.32956725       0.31585553       0.30425036       0.29604882       0.29012364       0.26629582       0.24241355       0.23762482       0.24975410       0.25595158       0.26239914       0.26801956       0.25891528       0.24118204       0.22754833       0.22580348       0.21540760       0.21310607       0.21662131       0.22772221       0.24450833       0.26681799       0.28695923       0.29861003       0.31446233       0.32472658       0.32820883       0.33676022       0.34281802       0.34128296       0.33421102       0.33590126       0.32071441       0.30708671       0.30503815       0.30543137       0.29230070       0.29277423       0.30721486       0.31147337
         0.26799005       0.27613771       0.28601533       0.29696822       0.30624792       0.31655726       0.32384887       0.31473345       0.30851316       0.29147571       0.27833462       0.27820221       0.27631706       0.26946384       0.27466622       0.29447374       0.32270670       0.34741250       0.35538587       0.35299078       0.34823143       0.33286327       0.31832507       0.30038193       0.29631484       0.28767660       0.27670395       0.27820927       0.28204384       0.28157756       0.27784017       0.29174438       0.28809741       0.28688571       0.27584603       0.26428959       0.26713654       0.27570221       0.29064882       0.30402809       0.31440493       0.31832191       0.32035434       0.30403504       0.29482803       0.28882504       0.27805841       0.26952609       0.27112573       0.28384447       0.29814288       0.30626786       0.31010225       0.31582671       0.31789991       0.31290615       0.31130740       0.32717481       0.31654006       0.31465277       0.31765682       0.30414352       0.29473662       0.29790926       0.29551053       0.27890491       0.25481638       0.24694517       0.25251406       0.26221746       0.27086854       0.27372816       0.26561645       0.24953906       0.23503354       0.23102614       0.22164659       0.21255691       0.20808880       0.21597587       0.23364034       0.24885866       0.27162594       0.28861979       0.29137012       0.29766536       0.30607662       0.32540768       0.34008390       0.35004097       0.35416776       0.34897906       0.34171996       0.33130503       0.32381752       0.32048631       0.30630288       0.30649486       0.31374913       0.30526569
         0.27176294       0.27413401       0.27508855       0.29766479       0.30680215       0.31688827       0.31641963       0.31448236       0.31046110       0.30099401       0.28700179       0.28408533       0.28455132       0.28082365       0.29790238       0.31448105       0.32885423       0.34580466       0.36370090       0.36184046       0.34264204       0.33650488       0.31608412       0.29729605       0.28624904       0.27870166       0.26505312       0.25800255       0.27014029       0.27685067       0.28249836       0.28944942       0.29369619       0.29234430       0.27925473       0.27086225       0.27361515       0.28261259       0.29948533       0.32176167       0.33215231       0.32496321       0.31574580       0.30419254       0.29427728       0.29094836       0.29098514       0.28233826       0.29379925       0.30245298       0.31507173       0.32843113       0.33377945       0.33591753       0.33870262       0.33671045       0.32974035       0.33360365       0.31577992       0.30450493       0.29632258       0.28904721       0.28881207       0.29658026       0.30122614       0.28702420       0.26869535       0.26223201       0.25850773       0.26829445       0.27754977       0.27913800       0.27349639       0.26337299       0.24809091       0.24075983       0.23023432       0.21702680       0.20557389       0.20368241       0.22219422       0.24230745       0.26196939       0.27988088       0.28438088       0.29011014       0.30634204       0.32636043       0.34430227       0.35418338       0.35630938       0.35646811       0.35084534       0.34738103       0.33868638       0.33031592       0.32445878       0.31757161       0.32040688       0.31405303
         0.26842302       0.26860034       0.26736075       0.28903425       0.29720768       0.30932623       0.31511641       0.32210317       0.31534708       0.31064463       0.30363280       0.30408874       0.29963309       0.28797859       0.31640348       0.33574343       0.35126093       0.36146072       0.36595803       0.36269599       0.34553745       0.32954410       0.31702074       0.29907742       0.27591595       0.26903012       0.26199692       0.25775856       0.25838593       0.26807702       0.27716854       0.28807589       0.29364857       0.28745529       0.28187859       0.26996264       0.27429673       0.28396636       0.30762747       0.32573494       0.33380845       0.33085975       0.32006228       0.30648494       0.29325622       0.29163992       0.29953960       0.29667380       0.30824238       0.31632051       0.33148754       0.34207889       0.34596950       0.34513676       0.35316908       0.35077682       0.33802459       0.33466974       0.31353918       0.29178500       0.28120628       0.27325913       0.28261182       0.30231005       0.30732042       0.29337573       0.28385451       0.28025711       0.27356553       0.27441576       0.28578219       0.29950619       0.28748137       0.26559797       0.24939883       0.24855691       0.23648921       0.22374739       0.21314937       0.21442270       0.23464797       0.24802530       0.26815045       0.27422857       0.27920830       0.29086310       0.30862024       0.32660851       0.35098553       0.35672009       0.35576493       0.35640299       0.35929272       0.35843486       0.35279769       0.35145995       0.34145913       0.33127499       0.33162412       0.32631534
         0.26972499       0.26449051       0.26856253       0.27938756       0.29502806       0.30597058       0.31659570       0.33045709       0.32578039       0.32501665       0.32289568       0.31900293       0.30937055       0.31761700       0.33066827       0.35048822       0.35542455       0.36047456       0.36945513       0.36005107       0.34586647       0.32707527       0.31444877       0.29102740       0.27254793       0.26325670       0.25775048       0.25159791       0.24410231       0.24697243       0.26630476       0.27082098       0.27856234       0.27690983       0.26839170       0.27197143       0.27612588       0.28853989       0.31437266       0.32538539       0.33094758       0.32409468       0.32397231       0.31499106       0.31313112       0.30534184       0.30286428       0.30830386       0.32049498       0.32890335       0.34735775       0.35798833       0.35070419       0.34845334       0.35089427       0.34443426       0.33545712       0.33305058       0.30791372       0.27987951       0.26596794       0.27272475       0.28550082       0.29975018       0.30635357       0.30534106       0.29803604       0.29125494       0.28544810       0.28317440       0.29072231       0.30874300       0.29447421       0.27571622       0.26538801       0.25811645       0.24539785       0.23249543       0.22762786       0.22839372       0.24147399       0.24606344       0.26145229       0.27637821       0.28346723       0.29608163       0.31765643       0.32845598       0.33677784       0.34709859       0.35341108       0.35618386       0.36109480       0.35700661       0.35177130       0.35816833       0.35278335       0.35142770       0.34904453       0.33585185
         0.28563672       0.27844298       0.27719289       0.27919617       0.29282260       0.30870700       0.32704449       0.33973253       0.33724153       0.33173120       0.33093846       0.32921153       0.33146912       0.33964828       0.34782615       0.36360610       0.36856401       0.36337075       0.37528652       0.36868712       0.35001424       0.32570791       0.30313024       0.27752399       0.26653641       0.25451285       0.25247309       0.24088717       0.23348711       0.23513694       0.24448161       0.26081201       0.27077249       0.26723784       0.26627582       0.26870832       0.27441895       0.28972027       0.31011030       0.32093909       0.32944086       0.32286727       0.31540290       0.31953657       0.32257137       0.32132596       0.31824067       0.31779531       0.32105124       0.32867065       0.34476277       0.35306185       0.35052282       0.34199554       0.33527595       0.32770100       0.32598040       0.31864116       0.29027829       0.27068046       0.27059492       0.28224289       0.29696751       0.30539310       0.31291306       0.31942090       0.32058778       0.30494684       0.30022907       0.29389152       0.30105472       0.30671197       0.30130717       0.28658047       0.28165469       0.29900138       0.26261130       0.24588440       0.23174387       0.23908906       0.24913454       0.24353778       0.24805999       0.26267767       0.27228889       0.28666413       0.30358967       0.31186795       0.32023841       0.32862842       0.33932722       0.34180304       0.34607002       0.34885761       0.34502181       0.34839490       0.35983726       0.36123106       0.36403751       0.34800893
         0.29450461       0.29297382       0.29017991       0.28593612       0.29584265       0.31966510       0.34060657       0.35534531       0.34656909       0.34216985       0.33600900       0.33581635       0.34638533       0.35298210       0.36014286       0.36467522       0.36730847       0.36585990       0.37644148       0.37321115       0.35968673       0.33439991       0.30740318       0.28188264       0.26764667       0.25955740       0.24627687       0.23451316       0.22872609       0.23196220       0.23821712       0.25277880       0.26539046       0.26462561       0.26947325       0.27304876       0.27808502       0.28942144       0.30336711       0.30916458       0.31520161       0.31588694       0.31822097       0.32349169       0.32646120       0.32746527       0.32337725       0.32173017       0.31501496       0.31161943       0.31795684       0.32597104       0.33522025       0.32686484       0.31654325       0.30320838       0.29012015       0.27940345       0.26315254       0.25399509       0.26320398       0.28312632       0.29705477       0.31198853       0.32643461       0.33125791       0.32586390       0.31326061       0.30682442       0.29570198       0.29149956       0.30514121       0.30628496       0.30009308       0.29900138       0.29900138       0.27082965       0.25019476       0.23797843       0.24923910       0.25229990       0.25391296       0.26269943       0.26428965       0.27649629       0.28590000       0.29290605       0.29217070       0.30401564       0.31207874       0.32047880       0.33206537       0.33574373       0.33331800       0.34562224       0.35867962       0.36622715       0.37655237       0.37149045       0.35486436
         0.29833773       0.29374790       0.29255354       0.29348004       0.29968679       0.32227316       0.33853862       0.34785140       0.35643035       0.35648680       0.35032243       0.34890503       0.34411567       0.35415775       0.36639875       0.36720315       0.37080383       0.38125402       0.39271614       0.38258994       0.36420268       0.34375173       0.31449690       0.29150489       0.27146292       0.26120111       0.24575338       0.23507151       0.22646068       0.22792640       0.23488276       0.25786269       0.26239863       0.27269372       0.27686262       0.27787107       0.27318487       0.28188187       0.28686845       0.29723114       0.30084080       0.30661389       0.32121122       0.32797995       0.32693291       0.32182947       0.31134820       0.30072170       0.29596344       0.29950714       0.29505298       0.29241598       0.30314299       0.30255020       0.29122776       0.27861682       0.26110819       0.25188416       0.24857956       0.24269366       0.25261918       0.27109790       0.29260534       0.30598029       0.32258219       0.32685077       0.31749940       0.31211805       0.30827180       0.30362046       0.30639723       0.30228588       0.31266436       0.29900138       0.29900138       0.29900138       0.29900138       0.26513323       0.26453233       0.26732680       0.26824215       0.26464882       0.27185062       0.28495547       0.28687474       0.29218379       0.28562802       0.28942078       0.28718945       0.28931275       0.30421138       0.31972483       0.32733196       0.33132964       0.34957814       0.36614472       0.36739531       0.36709383       0.36515358       0.35365540
         0.29328427       0.29235065       0.28984421       0.29849970       0.30567408       0.33021829       0.34626439       0.35043553       0.36243245       0.36069351       0.36249423       0.35086787       0.34325075       0.34586960       0.35658142       0.35975647       0.37257713       0.38145027       0.38435417       0.37208572       0.34476027       0.32543594       0.31400275       0.30149120       0.27472609       0.25720549       0.24809334       0.23991819       0.22851360       0.22698840       0.23444904       0.26067477       0.27183002       0.28689098       0.28284466       0.27833635       0.27496284       0.27580154       0.27977556       0.28872505       0.29994166       0.31203851       0.31976628       0.32583195       0.32287034       0.31558004       0.30191976       0.28769949       0.28763539       0.29205057       0.27243960       0.26245835       0.27030236       0.26950091       0.26270893       0.25675884       0.24517092       0.24333329       0.24168432       0.24037223       0.24913286       0.26198590       0.27701563       0.29385510       0.30887133       0.31992048       0.31957513       0.31713369       0.31243864       0.30869654       0.31031305       0.31798261       0.29900138       0.29900138       0.29900138       0.29900138       0.29900138       0.28683665       0.28423494       0.29455239       0.29103157       0.28277159       0.29217014       0.29874033       0.29424033       0.28866807       0.27584040       0.28068441       0.27378616       0.27095649       0.29130810       0.30921799       0.31950536       0.33819997       0.34194466       0.35164070       0.35654941       0.34535679       0.33709866       0.32645121
         0.28670225       0.28524241       0.28890949       0.30251470       0.31619865       0.33329612       0.34891751       0.35282797       0.35902691       0.36898518       0.35718441       0.33589497       0.32924408       0.32365975       0.32553786       0.33133131       0.35067874       0.35682037       0.36325660       0.35361055       0.32770383       0.32397705       0.31593934       0.30412489       0.28617358       0.26952648       0.25528646       0.24639699       0.24329013       0.24743408       0.25031579       0.27065557       0.28678828       0.29150873       0.28633833       0.27204365       0.26921803       0.26889756       0.27214563       0.28553456       0.30671230       0.32073066       0.33205879       0.33196312       0.32088408       0.30784628       0.30604619       0.29452747       0.28667340       0.26917669       0.24745962       0.23695074       0.24237026       0.24365433       0.24367559       0.24692431       0.24335594       0.24258769       0.24179004       0.24054237       0.24758752       0.26578158       0.27378970       0.29172257       0.30183268       0.32295460       0.31968665       0.31341153       0.30998644       0.31877518       0.33137691       0.33115783       0.29900138       0.29900138       0.29900138       0.29900138       0.29900138       0.29642814       0.31024081       0.32701755       0.32733357       0.31279987       0.30831409       0.30773619       0.29601458       0.28721133       0.27119023       0.26754320       0.26454616       0.26872373       0.28924516       0.30122530       0.30598754       0.32235181       0.33179957       0.34070975       0.33842725       0.32120109       0.31099707       0.29306990