# File generated by Flopy version 3.9.2 on 06/10/2025 at 16:30:04.
BEGIN options
  SAVE_FLOWS
  SAVE_SPECIFIC_DISCHARGE
  SAVE_SATURATION
END options

BEGIN griddata
  icelltype
    CONSTANT  0
  k  LAYERED
    INTERNAL  FACTOR  1.0
      1.19184836E-06  1.24654287E-06  1.20295783E-06  1.04412288E-06  8.18114586E-07  3.85867325E-05  3.85867325E-05  3.85867325E-05  3.85867325E-05  3.85867325E-05  3.85867325E-05  3.85867325E-05  3.85867325E-05  3.85867325E-05  3.85867325E-05  3.85867325E-05  4.91084165E-07  3.87418680E-07  3.53381893E-07  3.42664634E-07  3.67341812E-07  2.57972374E-07  2.99382776E-07  3.91004136E-07  5.15742897E-07  5.91277455E-07  7.15125964E-07  9.53966605E-07  1.06862421E-06  1.23796235E-06  1.31450508E-06  1.06011134E-06  9.31121576E-07  7.60081548E-07  1.18448552E-05  1.77787169E-05  2.63649417E-05  2.76484643E-05  4.29189386E-05  4.91416540E-05  5.57798776E-05  6.88941582E-05  8.56644619E-05  1.38009797E-04  2.18099594E-04  2.55654188E-04  2.78726366E-04  2.27709781E-04  3.01583554E-04  1.95693929E-06  2.04199546E-06  3.85867325E-05  3.85867325E-05  3.85867325E-05  3.85867325E-05  3.85867325E-05  3.56206260E-06  3.57929912E-06  3.14037243E-06  2.59541798E-06  2.14703164E-06  1.80334064E-06  1.45392312E-06  1.24328847E-06  1.06056325E-06  2.20401616E-05  2.16355584E-05  3.73313160E-05  3.60505546E-05  2.29331599E-05  1.66546982E-07  1.62991654E-07  1.90634211E-07  2.41757277E-07  3.22341293E-07  4.23775191E-07  4.92442098E-07  5.23417270E-07  6.26006056E-07  6.62968716E-07  6.56280804E-07  6.09064784E-07  5.44167108E-07  5.32171669E-07  4.67436934E-07  4.16171389E-07  3.57714669E-07  1.00953712E-05  9.34907439E-06  1.71078318E-05  2.86221148E-05  3.48873946E-05  5.06329452E-05  4.01157995E-05  5.10789141E-05  3.13563687E-05  3.92238981E-05  4.27228515E-05  4.07733751E-05  3.24039538E-05  5.00844453E-06  3.66484505E-06  2.89667878E-06  2.17541924E-06  2.03373065E-06  2.83614122E-06  4.43868157E-06  8.93347078E-06  3.85867325E-05  3.85867325E-05  3.85867325E-05  3.85867325E-05  3.85867325E-05  3.85867325E-05  3.85867325E-05  3.85867325E-05  9.42643737E-07  5.16264208E-07  3.40141185E-07  3.37921961E-07  2.83450646E-07  2.82814199E-07  3.38848565E-07  4.07226167E-07  4.61560148E-07  1.52346902E-05  2.05338456E-05  6.03213084E-05  7.89918049E-05  1.12055727E-06  1.14920283E-06  1.08615427E-06  8.07748506E-07  5.06161314E-07  3.86381316E-07  3.22791152E-07  2.73999262E-07  2.35801934E-07  2.29703076E-07  2.37960037E-07
      1.39818974E-06  1.49881953E-06  1.43179386E-06  1.25788495E-06  1.09411280E-06  1.19692993E-06  3.85867325E-05  3.85867325E-05  3.85867325E-05  3.85867325E-05  3.85867325E-05  3.85867325E-05  3.85867325E-05  3.85867325E-05  3.85867325E-05  3.85867325E-05  5.98495660E-07  5.29039198E-07  5.32587819E-07  5.19883429E-07  5.19996263E-07  3.87573806E-07  4.56911465E-07  5.60201613E-07  6.84622592E-07  7.41317479E-07  8.32765465E-07  1.08735469E-06  1.18500338E-06  1.31872264E-06  1.44999490E-06  1.23037341E-06  9.66174071E-07  7.85156033E-07  6.47489333E-06  1.22653537E-05  1.83383345E-05  2.48423385E-05  2.46364743E-05  2.49316399E-05  4.49513973E-05  5.49946089E-05  3.93180671E-05  5.77051360E-05  5.55510051E-05  1.20158540E-04  1.50965920E-04  1.91464438E-04  2.72504303E-06  2.80028371E-06  2.49214645E-06  2.45195520E-06  2.60587240E-06  2.95790983E-06  3.02433841E-06  2.89712330E-06  3.22558162E-06  2.86442901E-06  2.67025212E-06  2.53856047E-06  1.98017710E-06  1.74852937E-06  1.59585943E-06  1.43741408E-06  2.70769178E-05  2.83249246E-05  7.04599443E-05  6.51618830E-05  5.42900052E-05  5.77346000E-05  5.62007299E-05  3.72605173E-05  3.36432313E-05  4.09040222E-05  3.10887845E-05  1.19758752E-05  1.92371317E-05  2.19351550E-05  2.40673216E-05  2.60499419E-05  1.25236265E-05  1.14854147E-05  1.19199685E-05  1.20360537E-05  1.10502951E-05  1.03728398E-05  1.69232280E-05  2.50053199E-05  2.40493973E-05  3.33182470E-05  3.45860099E-05  4.51864871E-05  6.48552887E-05  7.13699337E-05  5.87131872E-05  3.81304126E-05  4.58122049E-05  4.69711085E-05  3.96123578E-05  3.65969681E-05  4.48019546E-06  3.16959404E-06  2.63642437E-06  2.07357402E-06  2.08389656E-06  2.46800982E-06  3.83501902E-06  7.06987612E-06  1.45433969E-05  3.85867325E-05  3.85867325E-05  3.85867325E-05  3.85867325E-05  3.85867325E-05  3.85867325E-05  3.85867325E-05  9.91982120E-07  5.34765491E-07  3.50786792E-07  3.11770833E-07  3.09953833E-07  2.96522785E-07  3.62234374E-07  4.10475167E-07  4.76698688E-07  1.83699467E-05  6.27391055E-05  8.87218703E-05  1.08562519E-04  1.27748499E-04  1.70483792E-04  1.13822136E-06  8.05929801E-07  5.97982648E-07  4.70991125E-07  3.57592256E-07  2.88952776E-07  2.44879061E-07  2.36125587E-07  1.66990394E-05
      2.72579691E-05  1.66976565E-06  1.63931554E-06  1.69073655E-06  1.43998318E-06  1.62985771E-06  1.70066005E-06  2.11786914E-06  3.85867325E-05  3.85867325E-05  3.85867325E-05  3.85867325E-05  3.85867325E-05  3.85867325E-05  3.85867325E-05  3.85867325E-05  6.31078876E-07  6.32560955E-07  5.99889631E-07  6.02456964E-07  6.11405653E-07  5.23268454E-07  5.92998504E-07  7.86717635E-07  8.97338737E-07  9.36327240E-07  1.01115518E-06  1.26238888E-06  1.32305422E-06  1.33573019E-06  1.39368228E-06  1.14953968E-06  9.89077535E-07  6.83270628E-07  8.62336947E-06  1.38048963E-05  7.77174046E-06  5.46672595E-07  7.58136321E-06  5.46260878E-07  6.68191888E-07  9.93948106E-06  1.50871319E-05  1.64236133E-06  1.77599395E-06  2.33437436E-06  2.88403794E-06  3.31696879E-06  3.93271512E-06  3.61957427E-06  3.05829872E-06  2.69896964E-06  2.68198369E-06  2.45091496E-06  2.98784084E-06  3.25536803E-06  3.51646008E-06  3.13994406E-06  2.65213498E-06  2.19585945E-06  1.94321137E-06  1.58826333E-06  1.67305166E-06  1.38484484E-06  2.48938049E-05  6.73038958E-05  8.78546489E-05  1.12020578E-04  1.16562915E-04  1.05440246E-04  1.21417710E-04  9.98150135E-05  7.52721680E-05  6.45377149E-05  4.71955245E-05  3.50112678E-05  4.17085394E-05  4.50544430E-05  4.65832672E-05  4.11626752E-05  3.81241189E-05  3.49145666E-05  2.73240694E-05  2.79273518E-05  1.21824314E-05  2.05695269E-05  2.81713255E-05  3.79809499E-05  4.45370024E-05  4.29398387E-05  4.94325614E-05  5.73663528E-05  7.80529153E-05  7.96196546E-05  9.97399766E-05  4.86154604E-05  3.10949895E-06  3.63416052E-06  4.20244760E-06  4.27634477E-05  3.77858123E-05  3.68856272E-05  3.37640340E-05  2.96870894E-05  1.82967381E-06  2.39186738E-06  3.85038993E-06  8.33591548E-06  1.36773533E-05  3.85867325E-05  3.85867325E-05  3.85867325E-05  3.85867325E-05  3.85867325E-05  3.85867325E-05  3.85867325E-05  1.01125329E-06  4.83699523E-07  3.41790980E-07  3.12517585E-07  3.39936975E-07  3.56717464E-07  3.49543228E-07  3.84785125E-07  4.68725830E-07  2.13498133E-05  7.41145996E-05  2.01601841E-04  2.47683231E-04  1.59417323E-04  1.73707522E-04  1.59562886E-04  8.15519172E-07  6.03239698E-07  5.36526159E-07  4.26993864E-07  3.36616097E-07  2.70188650E-07  2.07863941E-05  2.32936563E-05
      2.29531506E-05  3.02253320E-05  1.74967704E-06  1.88470585E-06  1.74436354E-06  1.78590369E-06  1.89975526E-06  2.55379427E-06  3.27757402E-06  2.82165433E-06  3.85867325E-05  3.85867325E-05  3.85867325E-05  3.85867325E-05  3.85867325E-05  8.43505404E-07  7.30713509E-07  7.32583658E-07  6.41905899E-07  7.34562036E-07  6.52249298E-07  7.00317798E-07  8.00205044E-07  9.73687065E-07  1.12365001E-06  9.85644988E-07  1.00054149E-06  1.21515302E-06  1.26582199E-06  1.49345306E-06  1.54952750E-06  1.45731008E-06  1.19291565E-06  1.01145440E-06  8.45406646E-07  7.50281345E-07  7.10750328E-07  6.17479202E-07  6.02228795E-07  5.78985919E-07  6.94380958E-07  1.06155767E-06  1.49046218E-06  2.06923301E-06  2.57000033E-06  3.33719072E-06  3.93580922E-06  4.16113471E-06  4.27349096E-06  3.86730699E-06  3.81456948E-06  3.79745256E-06  3.17630952E-06  2.73963633E-06  3.05836807E-06  3.61621505E-06  3.90821469E-06  3.36780795E-06  2.57924353E-06  1.97055306E-06  1.70819283E-06  1.47831440E-06  1.39776398E-06  1.20706795E-06  4.72742140E-05  7.19437958E-05  1.10489251E-04  1.28645814E-04  1.24906976E-04  1.70878760E-04  1.67473758E-04  1.65296253E-04  1.15816336E-04  7.72847634E-05  6.67483691E-05  4.92068721E-05  5.12219485E-05  5.15396860E-05  4.93962762E-05  6.47852357E-05  6.39799036E-05  6.54303803E-05  6.88456857E-05  5.19068235E-05  2.54408096E-05  3.49654838E-05  5.19024761E-05  5.15008142E-05  6.16835168E-05  6.75437259E-05  8.19780762E-05  9.12720570E-05  1.16411393E-04  1.22680780E-04  1.04069368E-04  6.42568557E-05  2.55801456E-06  2.93703556E-06  2.94991401E-06  4.66138044E-05  4.00975478E-05  3.61511957E-05  2.04621779E-06  1.75575383E-06  1.70145336E-06  2.08924644E-06  3.66457971E-06  6.98737858E-06  1.12418684E-05  1.29095579E-05  3.85867325E-05  3.85867325E-05  3.85867325E-05  3.85867325E-05  3.85867325E-05  1.59158697E-06  8.52051187E-07  4.68872571E-07  3.06695284E-07  3.33876727E-07  3.59621708E-07  3.88893767E-07  4.06389262E-07  4.30751470E-07  2.44636976E-05  5.48901335E-05  7.70085535E-05  2.01836927E-04  2.54438550E-04  3.01068154E-04  2.57028500E-04  2.37258195E-04  2.03547068E-04  8.86292182E-05  5.41166855E-07  4.77674917E-07  3.83638792E-07  2.59435237E-05  1.78100563E-05  1.67553590E-05
      4.20366960E-05  6.81574093E-05  5.19664245E-05  8.67529088E-05  1.35716232E-06  1.49481912E-06  2.37738709E-06  3.07770938E-06  3.88438366E-06  3.46322872E-06  2.95267591E-06  3.85867325E-05  3.85867325E-05  2.20880179E-06  1.33768469E-06  1.08720428E-06  1.04179458E-06  9.22548054E-07  8.90521960E-07  1.05981599E-06  1.05483707E-06  9.65405434E-07  9.68213158E-07  3.85867325E-05  3.85867325E-05  3.85867325E-05  3.85867325E-05  3.85867325E-05  3.85867325E-05  1.40735801E-06  1.59827823E-06  1.45920512E-06  1.31567538E-06  1.14322927E-06  9.12111716E-07  9.05009074E-07  8.35956541E-07  7.15088674E-07  5.74034289E-07  6.40496353E-07  7.26205712E-07  1.13392321E-06  1.68933093E-06  2.60960587E-06  3.87293403E-06  3.57370641E-06  4.38964707E-06  4.55759891E-06  5.00266287E-06  4.42219061E-06  4.46766353E-06  3.85590329E-06  3.16373917E-06  2.72248053E-06  2.97556812E-06  3.33618959E-06  4.23518304E-06  3.76603066E-06  2.68756594E-06  1.83305042E-06  1.45276988E-06  1.05547247E-06  9.62891249E-07  3.43736283E-05  6.29097267E-05  8.33674349E-05  1.16039068E-04  1.62394674E-04  1.62937533E-04  2.23592244E-04  2.55937164E-04  1.74949571E-04  1.46980761E-04  9.46473592E-05  7.25585196E-05  5.52032834E-05  4.39205542E-05  4.11760811E-05  5.10399077E-05  5.85777452E-05  7.03210608E-05  7.92050560E-05  7.73437350E-05  6.08296796E-05  3.49281108E-05  3.95025963E-05  5.04912678E-05  5.88369476E-05  8.05360978E-05  9.59140016E-05  9.82707788E-05  1.25158345E-04  1.62803495E-04  1.47283528E-04  1.27246356E-04  1.46779450E-04  9.08028524E-05  9.41729450E-05  8.00369671E-05  5.53617974E-05  4.30437540E-05  3.82415128E-05  1.62517028E-06  1.58425973E-06  1.55001055E-06  1.73227420E-06  2.52906943E-06  4.18278933E-06  7.08578455E-06  7.11676421E-06  6.96258621E-06  3.85867325E-05  3.85867325E-05  3.09476900E-06  1.97297550E-06  1.19173524E-06  6.53027087E-07  4.12593295E-07  3.76336885E-07  4.00719188E-07  4.33059881E-07  5.07123275E-07  5.39936650E-07  5.76855427E-07  2.91624146E-05  2.84854686E-05  6.51338560E-05  1.94621272E-04  2.17513210E-04  2.19963913E-04  1.89250335E-04  1.78065820E-04  1.38881805E-04  1.26385406E-04  1.05904139E-04  4.18916497E-05  4.82082978E-05  2.02244773E-05  1.89292332E-05  1.15798766E-05
      7.69204489E-05  7.52381020E-05  7.02375910E-05  1.76952977E-04  8.69837313E-05  1.46795787E-06  2.04774960E-06  2.66842653E-06  3.41559166E-06  3.62196192E-06  3.15113903E-06  2.95513451E-06  2.45009301E-06  1.96027031E-06  1.34187485E-06  1.43358625E-06  1.20782431E-06  1.26860687E-06  1.47642299E-06  1.53444807E-06  1.52144992E-06  3.85867325E-05  3.85867325E-05  3.85867325E-05  3.85867325E-05  3.85867325E-05  3.85867325E-05  3.85867325E-05  3.85867325E-05  3.85867325E-05  3.85867325E-05  1.46845480E-06  1.23892153E-06  9.80303753E-07  3.85867325E-05  3.85867325E-05  3.85867325E-05  8.96412644E-07  3.85867325E-05  3.85867325E-05  3.85867325E-05  3.85867325E-05  3.85867325E-05  2.79818869E-06  4.00071895E-06  3.72768545E-06  4.99985617E-06  5.66843755E-06  6.49795766E-06  5.74688784E-06  5.34556102E-06  4.29852844E-06  2.83348732E-06  3.11487042E-06  3.24038820E-06  3.90396690E-06  4.24618111E-06  3.85618387E-06  2.68922577E-06  1.62640333E-06  1.17914931E-06  7.46358069E-07  4.46858321E-05  9.08039801E-05  1.19933415E-04  1.35699025E-04  1.69008388E-04  1.83527532E-04  1.95389759E-04  2.13771054E-04  2.37535220E-04  2.06009834E-04  1.34736474E-04  8.34521270E-05  5.84789050E-05  4.93210209E-05  3.44406217E-05  2.98891537E-05  3.77458127E-05  4.96756184E-05  5.96712161E-05  7.00625096E-05  6.87810825E-05  5.40158726E-05  3.73194780E-05  4.14766546E-05  5.64024376E-05  7.46597652E-05  9.86104133E-05  1.36971023E-04  1.74880377E-04  1.64547411E-04  1.88487553E-04  1.62050084E-04  1.86122750E-04  1.07181535E-04  1.29127761E-06  1.41626151E-06  1.60170134E-06  1.48897504E-06  1.42652402E-06  1.38344967E-06  1.31960678E-06  1.33535161E-06  1.28170564E-06  1.37310656E-06  1.82704912E-06  2.83530517E-06  3.61036200E-06  3.46982483E-06  3.28825308E-06  3.09023426E-06  2.40175791E-06  1.80633197E-06  1.21934318E-06  9.08046843E-07  5.17599972E-07  4.30979640E-07  4.30339611E-07  4.74255586E-07  5.71360317E-07  6.15115539E-07  7.27634927E-07  8.54730388E-07  8.80678556E-07  1.07941707E-06  1.31654383E-06  1.65612946E-04  1.57277973E-04  1.55731046E-04  3.85867325E-05  3.85867325E-05  3.85867325E-05  7.95477827E-05  6.14526143E-05  2.86247687E-05  3.03947527E-05  1.25485576E-05  1.28208158E-05  4.22342828E-06
      1.04631625E-04  1.95472254E-04  2.19615002E-04  2.29641679E-04  1.94456268E-04  1.13634705E-04  3.97208169E-05  1.94901349E-06  2.24421547E-06  2.20247171E-06  2.51020424E-06  2.07637322E-06  1.65863162E-06  1.42251520E-06  1.22885149E-06  1.08740585E-06  1.19232152E-06  1.32377625E-06  1.47483058E-06  1.74516333E-06  3.85867325E-05  3.85867325E-05  3.85867325E-05  3.85867325E-05  3.85867325E-05  3.85867325E-05  3.85867325E-05  3.85867325E-05  3.85867325E-05  3.85867325E-05  3.85867325E-05  3.85867325E-05  3.85867325E-05  3.85867325E-05  3.85867325E-05  3.85867325E-05  3.85867325E-05  3.85867325E-05  3.85867325E-05  3.85867325E-05  3.85867325E-05  3.85867325E-05  3.85867325E-05  3.85867325E-05  3.85867325E-05  4.47151797E-06  5.08262519E-06  6.18720969E-06  7.20831167E-06  7.13133613E-06  7.12395058E-06  5.47236095E-06  3.85327667E-06  4.13784937E-06  4.03800050E-06  4.05482433E-06  4.29979718E-06  3.90395053E-06  2.70518649E-06  1.56331782E-06  1.01441969E-06  3.65770975E-05  9.26895518E-05  1.63011384E-04  2.08986763E-04  2.12377068E-04  2.24504969E-04  2.26110962E-04  2.20698217E-04  2.21112321E-04  2.19673966E-04  1.62996046E-04  1.14243128E-04  8.28890406E-05  5.74497280E-05  4.38411334E-05  3.12873999E-05  3.23104505E-05  3.47197529E-05  4.96324610E-05  5.95800047E-05  5.67253082E-05  5.42271555E-05  5.04910422E-05  4.08657143E-05  4.41234952E-05  5.91336211E-05  7.82974312E-05  1.23834630E-04  1.93529268E-04  1.95805449E-04  1.84617296E-04  2.07722303E-04  2.70288874E-04  2.35554908E-04  1.34956936E-04  1.21205233E-06  1.18476328E-06  1.15682565E-06  1.04179958E-06  1.01951173E-06  1.07179380E-06  1.07951359E-06  1.10397650E-06  1.06477285E-06  1.08096378E-06  1.26960754E-06  1.68690894E-06  1.82424242E-06  1.79156325E-06  1.75066396E-06  1.63177958E-06  1.42740100E-06  1.07527660E-06  7.24145366E-07  5.90074819E-07  5.37239487E-07  5.13453756E-07  5.69446570E-07  6.19224636E-07  7.70915619E-07  7.90177012E-07  1.04442825E-06  1.18913522E-06  1.27525493E-06  1.21992809E-06  3.85867325E-05  3.85867325E-05  3.85867325E-05  3.85867325E-05  3.85867325E-05  3.85867325E-05  3.85867325E-05  3.85867325E-05  3.85867325E-05  3.34419070E-07  3.07874529E-07  9.76281535E-06  6.40694225E-06  4.41779775E-07
      1.74645931E-04  3.42287356E-04  3.44055705E-04  3.51586525E-04  2.27760145E-04  1.79452793E-04  7.68330065E-05  5.29020363E-05  2.06870063E-05  1.80990605E-06  1.48323943E-06  1.19903484E-06  1.32424555E-06  1.20341349E-06  1.12594500E-06  1.03226387E-06  1.31832428E-06  1.45955380E-06  1.52963412E-06  1.85795568E-06  3.85867325E-05  3.85867325E-05  3.85867325E-05  3.85867325E-05  3.85867325E-05  3.85867325E-05  3.85867325E-05  3.85867325E-05  3.85867325E-05  3.85867325E-05  3.85867325E-05  3.85867325E-05  3.85867325E-05  3.85867325E-05  3.85867325E-05  3.85867325E-05  3.85867325E-05  3.85867325E-05  3.85867325E-05  3.85867325E-05  3.85867325E-05  3.85867325E-05  3.85867325E-05  3.85867325E-05  3.85867325E-05  5.19245305E-06  5.29104273E-06  5.67844654E-06  7.02693615E-06  6.91299465E-06  7.08618427E-06  6.19185084E-06  4.89151580E-06  4.96095254E-06  4.83531039E-06  4.07561083E-06  3.89865636E-06  3.56228657E-06  2.35624611E-06  1.35211496E-06  2.50023822E-05  5.46618903E-05  9.84514554E-05  2.20716684E-04  2.43889022E-04  2.72308913E-04  2.36952648E-04  2.60470726E-04  2.53451522E-04  2.28389166E-04  2.01860472E-04  1.37148105E-04  1.06691296E-04  8.15624153E-05  4.48317660E-05  3.36317607E-05  2.86980649E-05  3.16281330E-05  3.51442359E-05  4.52931199E-05  4.39072792E-05  4.63483921E-05  4.49922991E-05  4.39004252E-05  4.87383222E-05  4.33470523E-05  5.21015027E-05  6.55413533E-05  1.12906564E-04  1.49903557E-04  1.60813055E-04  1.90847539E-04  1.90480801E-04  1.76385307E-04  2.29417230E-04  1.22286394E-04  1.22396712E-04  9.83252903E-07  8.52208927E-07  7.88160662E-07  7.84940880E-07  8.54654104E-07  8.33910121E-07  9.02374552E-07  8.24298525E-07  8.23824564E-07  8.06182129E-07  9.37021639E-07  1.01842488E-06  9.33339265E-07  9.16815850E-07  8.64819015E-07  8.20805383E-07  6.41324220E-07  4.53444642E-07  3.40525844E-07  3.93590597E-07  4.68508631E-07  6.05529522E-07  7.83337100E-07  9.58170290E-07  1.08941924E-06  1.37850236E-06  1.35509856E-06  3.85867325E-05  3.85867325E-05  3.85867325E-05  3.85867325E-05  3.85867325E-05  3.85867325E-05  3.85867325E-05  3.85867325E-05  3.85867325E-05  3.85867325E-05  3.85867325E-05  3.00239634E-07  2.89182253E-07  3.05536247E-07  3.67129445E-07  4.87660259E-07
      2.63661233E-04  4.32642264E-04  4.98391339E-04  4.57971561E-04  3.45558219E-04  2.84203590E-04  1.63233068E-04  1.00872538E-04  6.65316038E-05  3.60465856E-05  1.22864758E-05  1.05714821E-06  1.11589270E-06  1.16807655E-06  1.08027552E-06  1.17133868E-06  1.43261002E-06  1.71114152E-06  1.71488205E-06  1.95744860E-06  3.85867325E-05  3.85867325E-05  3.85867325E-05  3.85867325E-05  3.85867325E-05  3.85867325E-05  3.85867325E-05  3.85867325E-05  3.85867325E-05  3.85867325E-05  3.85867325E-05  3.85867325E-05  3.85867325E-05  3.85867325E-05  3.85867325E-05  3.85867325E-05  3.85867325E-05  3.85867325E-05  3.85867325E-05  3.85867325E-05  3.85867325E-05  3.85867325E-05  3.85867325E-05  3.85867325E-05  3.85867325E-05  3.85867325E-05  5.74709702E-06  6.82344125E-06  8.00969701E-06  7.66529229E-06  7.70921997E-06  7.11632083E-06  5.69725898E-06  4.83057329E-06  4.49953131E-06  3.88540093E-06  3.64983907E-06  2.88538058E-06  2.01856801E-06  1.43703046E-05  3.39486760E-05  7.24253332E-05  1.14211180E-04  2.10064798E-04  3.12061195E-04  3.25124449E-04  3.01363820E-04  2.88721378E-04  3.18671489E-04  2.96533370E-04  2.29518380E-04  1.39230950E-04  1.02013546E-04  8.30156278E-05  4.64508194E-05  3.58666803E-05  3.52677052E-05  3.41430023E-05  3.77848046E-05  4.12081790E-05  4.18174604E-05  4.72253269E-05  4.37435992E-05  4.25550534E-05  4.64612312E-05  5.07303812E-05  5.10135069E-05  5.01430259E-05  9.87331296E-05  1.45253274E-04  1.58780444E-04  1.10620524E-04  1.08182758E-04  1.41757642E-04  9.13468975E-05  1.12975681E-06  1.12820817E-06  9.27548399E-07  7.79790298E-07  7.27859856E-07  5.82624693E-07  6.16572720E-07  7.60756507E-07  9.26428982E-07  8.33026661E-07  6.73617819E-07  5.82268854E-07  5.74298724E-07  5.80704352E-07  5.44905276E-07  4.54408223E-07  5.03866204E-07  4.81617519E-07  4.02478179E-07  3.16449416E-07  2.83693566E-07  3.76095784E-07  5.17731678E-07  6.84374186E-07  9.20732020E-07  1.17812453E-06  1.53146789E-06  1.63887626E-06  1.79210372E-06  3.85867325E-05  3.85867325E-05  3.85867325E-05  3.85867325E-05  3.85867325E-05  3.85867325E-05  3.85867325E-05  3.85867325E-05  3.85867325E-05  3.85867325E-05  3.85867325E-05  2.51582009E-07  2.60760402E-07  3.30733343E-07  3.90923987E-07  5.12482870E-07
      3.23228771E-04  4.18867217E-04  4.51594242E-04  4.79845970E-04  4.60777897E-04  3.99183278E-04  2.25933865E-04  1.46702718E-04  9.93813810E-05  7.57883899E-05  4.85581768E-05  2.55898194E-05  9.93970480E-06  9.86489567E-07  1.02793820E-06  1.19046354E-06  1.39813471E-06  1.61350306E-06  1.72675163E-06  1.78090545E-06  3.85867325E-05  3.85867325E-05  3.85867325E-05  3.85867325E-05  3.85867325E-05  3.85867325E-05  3.85867325E-05  3.85867325E-05  3.85867325E-05  3.85867325E-05  3.85867325E-05  3.85867325E-05  3.85867325E-05  3.85867325E-05  3.85867325E-05  3.85867325E-05  3.85867325E-05  3.85867325E-05  3.85867325E-05  3.85867325E-05  3.85867325E-05  3.85867325E-05  3.85867325E-05  3.85867325E-05  3.85867325E-05  3.85867325E-05  3.85867325E-05  7.02154512E-06  8.44770511E-06  8.67681229E-06  8.34452567E-06  7.42061820E-06  7.08789639E-06  5.69623126E-06  4.92376375E-06  3.56911823E-06  3.07138862E-06  2.22721633E-06  8.80833159E-06  1.79733615E-05  3.92988113E-05  8.09212870E-05  1.43462166E-04  2.58057233E-04  3.46134329E-04  3.42107611E-04  3.57756478E-04  3.50455579E-04  3.87565990E-04  3.65352375E-04  2.81658635E-04  1.70619111E-04  1.09360109E-04  7.39053357E-05  5.06352881E-05  4.37117596E-05  3.96887554E-05  4.03634549E-05  3.76892422E-05  4.11088004E-05  4.06253312E-05  3.89245070E-05  4.04512721E-05  4.00850040E-05  3.85326857E-05  4.81131428E-05  4.38870047E-05  5.71090459E-05  8.56652841E-05  1.30415443E-04  7.49272513E-05  8.71897792E-05  7.10590903E-05  5.54480757E-05  5.58181273E-05  7.17358198E-05  1.00173452E-06  8.87966507E-07  7.28274813E-07  6.34386083E-07  4.46852994E-07  4.86259410E-07  5.43171836E-07  6.17947137E-07  5.62265598E-07  4.69683357E-07  4.40582880E-07  3.71361409E-07  3.13348323E-07  2.81088262E-07  2.56089550E-07  2.62574076E-07  2.74097772E-07  2.53215347E-07  2.62551623E-07  2.72471709E-07  3.90995382E-07  6.01277634E-07  8.96503593E-07  1.19259857E-06  1.59234298E-06  2.03305763E-06  2.20365337E-06  2.22706080E-06  3.85867325E-05  3.85867325E-05  3.85867325E-05  3.85867325E-05  3.85867325E-05  3.85867325E-05  3.85867325E-05  3.85867325E-05  3.85867325E-05  3.85867325E-05  3.85867325E-05  2.31636321E-07  2.73174408E-07  3.06917087E-07  3.23649942E-07  4.69680856E-07
      2.55907798E-04  3.36878264E-04  4.20575117E-04  5.11053891E-04  6.15083787E-04  5.85501024E-04  4.23673075E-04  2.41388130E-04  1.79871466E-04  1.25393461E-04  6.14034507E-05  4.17533811E-05  2.31482190E-05  1.16625852E-05  4.82020369E-06  1.00898274E-06  1.23622669E-06  1.57720467E-06  1.62474112E-06  1.72677801E-06  3.85867325E-05  3.85867325E-05  3.85867325E-05  3.85867325E-05  3.85867325E-05  3.85867325E-05  3.85867325E-05  3.85867325E-05  3.85867325E-05  3.85867325E-05  3.85867325E-05  3.85867325E-05  3.85867325E-05  3.85867325E-05  3.85867325E-05  3.85867325E-05  3.85867325E-05  3.85867325E-05  3.85867325E-05  3.85867325E-05  3.85867325E-05  3.85867325E-05  3.85867325E-05  3.85867325E-05  3.85867325E-05  3.85867325E-05  3.85867325E-05  3.85867325E-05  3.85867325E-05  1.00941515E-05  8.70629447E-06  8.30861609E-06  7.55615520E-06  6.69396832E-06  5.06869947E-06  3.98556267E-06  2.47446155E-06  1.61660068E-06  5.77015635E-06  1.30023727E-05  3.56030541E-05  6.16281250E-05  1.51676897E-04  2.38728695E-04  3.26186535E-04  3.30801035E-04  3.82476515E-04  4.29454492E-04  4.43692203E-04  4.35518567E-04  3.34953918E-04  2.12021943E-04  1.48612191E-04  9.59156896E-05  7.57314992E-05  5.36271509E-05  4.45324476E-05  3.81780119E-05  3.45001281E-05  3.40986226E-05  3.46517336E-05  3.79897319E-05  4.06993568E-05  4.21943987E-05  4.43977588E-05  3.70431953E-05  3.68518122E-05  4.25376638E-05  7.28438899E-05  8.31648213E-05  6.82532045E-05  5.31197984E-05  6.46556946E-05  4.01907055E-05  4.10717294E-05  5.21819202E-05  4.69094448E-05  7.92355024E-07  6.59456816E-07  5.49451670E-07  3.79938086E-07  3.72501631E-07  3.82956671E-07  3.94035737E-07  3.26173421E-07  3.03879432E-07  2.47949458E-07  2.01155913E-07  1.59977702E-07  1.54553106E-07  1.44022096E-07  1.47399234E-07  1.65550503E-07  1.87386689E-07  2.10856086E-07  2.90166724E-07  4.81419988E-07  7.26732083E-07  1.18508387E-06  1.74876436E-06  2.13487692E-06  2.64662162E-06  2.88178376E-06  2.59558692E-06  3.85867325E-05  3.85867325E-05  3.85867325E-05  3.85867325E-05  3.85867325E-05  3.85867325E-05  3.85867325E-05  3.85867325E-05  3.85867325E-05  3.85867325E-05  3.85867325E-05  2.56065704E-07  2.62457718E-07  2.92987238E-07  3.41730129E-07  4.09687431E-07
      2.32205042E-04  3.12129967E-04  4.10566659E-04  5.00751601E-04  5.84988738E-04  5.93821576E-04  4.97272878E-04  3.45804350E-04  2.03115051E-04  1.48790277E-04  9.49610767E-05  4.31910157E-05  1.80250099E-05  1.01200885E-05  7.28964778E-06  4.27932719E-06  1.11061354E-06  1.45832018E-06  1.57729119E-06  3.85867325E-05  3.85867325E-05  3.85867325E-05  3.85867325E-05  3.85867325E-05  3.85867325E-05  3.85867325E-05  3.85867325E-05  3.85867325E-05  3.85867325E-05  3.85867325E-05  3.85867325E-05  3.85867325E-05  3.85867325E-05  3.85867325E-05  3.85867325E-05  3.85867325E-05  3.85867325E-05  3.85867325E-05  3.85867325E-05  3.85867325E-05  3.85867325E-05  3.85867325E-05  3.85867325E-05  3.85867325E-05  3.85867325E-05  3.85867325E-05  3.85867325E-05  3.85867325E-05  3.85867325E-05  3.85867325E-05  8.95924586E-06  7.92814080E-06  6.55904478E-06  4.76373680E-06  3.78985874E-06  2.84483940E-06  1.96613519E-06  1.13485862E-06  4.80164772E-06  1.67895432E-05  4.08138621E-05  7.84646618E-05  1.76711575E-04  2.55425752E-04  3.12372256E-04  3.37116333E-04  3.88349494E-04  4.18686221E-04  4.21362784E-04  4.34230693E-04  3.98205448E-04  2.75566708E-04  1.87269470E-04  1.24457976E-04  9.57832235E-05  7.21734905E-05  3.72391405E-05  2.52697264E-05  2.18664700E-05  2.14639294E-05  3.09007446E-05  3.82287908E-05  4.62843818E-05  5.09821803E-05  6.50965740E-05  4.71308267E-05  4.52488930E-05  6.06495196E-05  7.53442946E-05  9.89450346E-05  5.24694988E-05  6.03779154E-05  6.74883922E-05  3.15966972E-05  3.89029592E-05  3.43679312E-05  2.95559385E-05  6.49656272E-07  5.24420045E-07  4.44822035E-07  3.92180453E-07  3.67838368E-07  3.19028800E-07  2.53384258E-07  1.92386665E-07  1.59496210E-07  1.38394398E-07  1.11618455E-07  8.40099830E-08  8.54452225E-08  9.85099859E-08  1.15009861E-07  1.40242221E-07  1.65918820E-07  1.85112668E-07  3.10552707E-07  1.78989267E-05  3.02289300E-05  1.53764086E-06  1.90154753E-06  2.49706613E-06  3.15033071E-06  3.25482938E-06  3.36041990E-06  3.02162016E-06  3.85867325E-05  3.85867325E-05  3.85867325E-05  3.85867325E-05  3.85867325E-05  3.85867325E-05  3.85867325E-05  3.85867325E-05  3.85867325E-05  3.85867325E-05  2.83365694E-07  2.49087577E-07  2.58194348E-07  2.82415385E-07  3.49837791E-07
      1.46610502E-04  2.26548058E-04  3.34578479E-04  4.72642540E-04  5.63351146E-04  5.32610400E-04  4.43563709E-04  3.22917447E-04  1.90159553E-04  1.37420880E-04  8.44607857E-05  3.85676067E-05  2.37882541E-05  1.28494721E-05  6.40891039E-06  3.53095311E-06  8.54787913E-07  1.12987993E-06  1.28964689E-06  3.85867325E-05  3.85867325E-05  3.85867325E-05  3.85867325E-05  3.85867325E-05  3.85867325E-05  3.85867325E-05  3.85867325E-05  3.85867325E-05  3.85867325E-05  3.85867325E-05  3.85867325E-05  3.85867325E-05  3.85867325E-05  3.85867325E-05  3.85867325E-05  3.85867325E-05  3.85867325E-05  3.85867325E-05  3.85867325E-05  3.85867325E-05  3.85867325E-05  3.85867325E-05  3.85867325E-05  3.85867325E-05  3.85867325E-05  3.85867325E-05  3.85867325E-05  3.85867325E-05  3.85867325E-05  3.85867325E-05  3.85867325E-05  6.38767278E-06  4.53498433E-06  3.40484485E-06  2.40733198E-06  1.68273766E-06  1.23164693E-06  8.39510903E-07  8.29084729E-06  1.88178310E-05  4.11255496E-05  7.84264703E-05  1.41665398E-04  2.21021139E-04  2.90446245E-04  3.20132240E-04  3.73591436E-04  3.81737947E-04  4.18478070E-04  3.78797413E-04  3.43476800E-04  3.12346878E-04  2.28158926E-04  1.49969666E-04  1.02361926E-04  7.23335834E-05  3.68232504E-05  2.84329944E-05  2.37449422E-05  2.28028821E-05  2.69007596E-05  4.28744024E-05  5.67282950E-05  7.39426323E-05  7.29833555E-05  8.54061145E-05  7.03558326E-05  8.81638043E-05  8.79112340E-05  9.18013466E-05  9.49680398E-05  6.60139922E-05  6.92614776E-05  6.97647120E-05  6.11682117E-05  4.84798256E-05  7.36267793E-07  5.93705067E-07  4.47590992E-07  3.55166662E-07  3.64585588E-07  3.53944870E-07  2.72418902E-07  1.79544983E-07  1.12512630E-07  9.12570712E-08  7.81031204E-08  6.08420905E-08  5.76437067E-08  6.57931309E-08  8.40039931E-08  1.09093563E-07  1.40602765E-07  1.67534296E-07  2.05495169E-07  3.20866661E-07  1.89271577E-05  2.99580715E-05  4.82525938E-05  2.42519582E-06  2.95596124E-06  3.34057336E-06  3.16278988E-06  3.20992058E-06  3.38326458E-06  3.35669802E-06  3.85867325E-05  3.85867325E-05  3.85867325E-05  3.85867325E-05  3.85867325E-05  3.85867325E-05  3.85867325E-05  3.85867325E-05  3.85867325E-05  3.13796306E-07  2.60453987E-07  2.24226255E-07  2.23304923E-07  3.14472658E-07