# File generated by Flopy version 3.8.2 on 01/22/2025 at 12:06:10.
BEGIN options
END options

BEGIN packages
  OC6  model_new_resolution_2.oc  oc
  IC6  model_new_resolution_2.ic  ic
  DIS6  model_new_resolution_2.dis  dis
  NPF6  model_new_resolution_2.npf  npf
  CHD6  model_new_resolution_2.chd  chd_0
END packages

