# File generated by Flopy version 3.8.2 on 01/22/2025 at 12:06:10.
BEGIN options
  XORIGIN       0.00000000
  YORIGIN       0.00000000
END options

BEGIN dimensions
  NLAY  21
  NROW  21
  NCOL  42
END dimensions

BEGIN griddata
  delr
    CONSTANT       6.00000000
  delc
    CONSTANT       6.00000000
  top
    INTERNAL  FACTOR  1.0
        -4.92000961      -4.92000961      -4.92000961      -4.92000961      -4.92000961      -4.92000961      -4.92000961      -4.92000961      -4.92000961      -4.92000961      -4.92000961      -4.92000961      -4.92000961      -4.92000961      -4.92000961      -4.92000961      -4.92000961      -4.92000961      -4.92000961      -4.92000961      -4.92000961      -4.92000961      -4.92000961      -4.92000961      -4.92000961      -4.92000961      -4.92000961      -4.92000961      -4.92000961      -4.92000961      -4.92000961      -4.92000961      -4.92000961      -4.92000961      -4.92000961      -4.92000961      -4.92000961      -4.92000961      -4.92000961      -4.92000961      -4.92000961      -4.92000961
        -4.92000961      -4.92000961      -4.92000961      -4.92000961      -4.92000961      -4.92000961      -4.92000961      -4.92000961      -4.92000961      -4.92000961      -4.92000961      -4.92000961      -4.92000961      -4.92000961      -4.92000961      -4.92000961      -4.92000961      -4.92000961      -4.92000961      -4.92000961      -4.92000961      -4.92000961      -4.92000961      -4.92000961      -4.92000961      -4.92000961      -4.92000961      -4.92000961      -4.92000961      -4.92000961      -4.92000961      -4.92000961      -4.92000961      -4.92000961      -4.92000961      -4.92000961      -4.92000961      -4.92000961      -4.92000961      -4.92000961      -4.92000961      -4.92000961
        -4.92000961      -4.92000961      -4.92000961      -4.92000961      -4.92000961      -4.92000961      -4.92000961      -4.92000961      -4.92000961      -4.92000961      -4.92000961      -4.92000961      -4.92000961      -4.92000961      -4.92000961      -4.92000961      -4.92000961      -4.92000961      -4.92000961      -4.92000961      -4.92000961      -4.92000961      -4.92000961      -4.92000961      -4.92000961      -4.92000961      -4.92000961      -4.92000961      -4.92000961      -4.92000961      -4.92000961      -4.92000961      -4.92000961      -4.92000961      -4.92000961      -4.92000961      -4.92000961      -4.92000961      -4.92000961      -4.92000961      -4.92000961      -4.92000961
        -4.92000961      -4.92000961      -4.92000961      -4.92000961      -4.92000961      -4.92000961      -4.92000961      -4.92000961      -4.92000961      -4.92000961      -4.92000961      -4.92000961      -4.92000961      -4.92000961      -4.92000961      -4.92000961      -4.92000961      -4.92000961      -4.92000961      -4.92000961      -4.92000961      -4.92000961      -4.92000961      -4.92000961      -4.92000961      -4.92000961      -4.92000961      -4.92000961      -4.92000961      -4.92000961      -4.92000961      -4.92000961      -4.92000961      -4.92000961      -4.92000961      -4.92000961      -4.92000961      -4.92000961      -4.92000961      -4.92000961      -4.92000961      -4.92000961
        -4.92000961      -4.92000961      -4.92000961      -4.92000961      -4.92000961      -4.92000961      -4.92000961      -4.92000961      -4.92000961      -4.92000961      -4.92000961      -4.92000961      -4.92000961      -4.92000961      -4.92000961      -4.92000961      -4.92000961      -4.92000961      -4.92000961      -4.92000961      -4.92000961      -4.92000961      -4.92000961      -4.92000961      -4.92000961      -4.92000961      -4.92000961      -4.92000961      -4.92000961      -4.92000961      -4.92000961      -4.92000961      -4.92000961      -4.92000961      -4.92000961      -4.92000961      -4.92000961      -4.92000961      -4.92000961      -4.92000961      -4.92000961      -4.92000961
        -4.92000961      -4.92000961      -4.92000961      -4.92000961      -4.92000961      -4.92000961      -4.92000961      -4.92000961      -4.92000961      -4.92000961      -4.92000961      -4.92000961      -4.92000961      -4.92000961      -4.92000961      -4.92000961      -4.92000961      -4.92000961      -4.92000961      -4.92000961      -4.92000961      -4.92000961      -4.92000961      -4.92000961      -4.92000961      -4.92000961      -4.92000961      -4.92000961      -4.92000961      -4.92000961      -4.92000961      -4.92000961      -4.92000961      -4.92000961      -4.92000961      -4.92000961      -4.92000961      -4.92000961      -4.92000961      -4.92000961      -4.92000961      -4.92000961
        -4.92000961      -4.92000961      -4.92000961      -4.92000961      -4.92000961      -4.92000961      -4.92000961      -4.92000961      -4.92000961      -4.92000961      -4.92000961      -4.92000961      -4.92000961      -4.92000961      -4.92000961      -4.92000961      -4.92000961      -4.92000961      -4.92000961      -4.92000961      -4.92000961      -4.92000961      -4.92000961      -4.92000961      -4.92000961      -4.92000961      -4.92000961      -4.92000961      -4.92000961      -4.92000961      -4.92000961      -4.92000961      -4.92000961      -4.92000961      -4.92000961      -4.92000961      -4.92000961      -4.92000961      -4.92000961      -4.92000961      -4.92000961      -4.92000961
        -4.92000961      -4.92000961      -4.92000961      -4.92000961      -4.92000961      -4.92000961      -4.92000961      -4.92000961      -4.92000961      -4.92000961      -4.92000961      -4.92000961      -4.92000961      -4.92000961      -4.92000961      -4.92000961      -4.92000961      -4.92000961      -4.92000961      -4.92000961      -4.92000961      -4.92000961      -4.92000961      -4.92000961      -4.92000961      -4.92000961      -4.92000961      -4.92000961      -4.92000961      -4.92000961      -4.92000961      -4.92000961      -4.92000961      -4.92000961      -4.92000961      -4.92000961      -4.92000961      -4.92000961      -4.92000961      -4.92000961      -4.92000961      -4.92000961
        -4.92000961      -4.92000961      -4.92000961      -4.92000961      -4.92000961      -4.92000961      -4.92000961      -4.92000961      -4.92000961      -4.92000961      -4.92000961      -4.92000961      -4.92000961      -4.92000961      -4.92000961      -4.92000961      -4.92000961      -4.92000961      -4.92000961      -4.92000961      -4.92000961      -4.92000961      -4.92000961      -4.92000961      -4.92000961      -4.92000961      -4.92000961      -4.92000961      -4.92000961      -4.92000961      -4.92000961      -4.92000961      -4.92000961      -4.92000961      -4.92000961      -4.92000961      -4.92000961      -4.92000961      -4.92000961      -4.92000961      -4.92000961      -4.92000961
        -4.92000961      -4.92000961      -4.92000961      -4.92000961      -4.92000961      -4.92000961      -4.92000961      -4.92000961      -4.92000961      -4.92000961      -4.92000961      -4.92000961      -4.92000961      -4.92000961      -4.92000961      -4.92000961      -4.92000961      -4.92000961      -4.92000961      -4.92000961      -4.92000961      -4.92000961      -4.92000961      -4.92000961      -4.92000961      -4.92000961      -4.92000961      -4.92000961      -4.92000961      -4.92000961      -4.92000961      -4.92000961      -4.92000961      -4.92000961      -4.92000961      -4.92000961      -4.92000961      -4.92000961      -4.92000961      -4.92000961      -4.92000961      -4.92000961
        -4.92000961      -4.92000961      -4.92000961      -4.92000961      -4.92000961      -4.92000961      -4.92000961      -4.92000961      -4.92000961      -4.92000961      -4.92000961      -4.92000961      -4.92000961      -4.92000961      -4.92000961      -4.92000961      -4.92000961      -4.92000961      -4.92000961      -4.92000961      -4.92000961      -4.92000961      -4.92000961      -4.92000961      -4.92000961      -4.92000961      -4.92000961      -4.92000961      -4.92000961      -4.92000961      -4.92000961      -4.92000961      -4.92000961      -4.92000961      -4.92000961      -4.92000961      -4.92000961      -4.92000961      -4.92000961      -4.92000961      -4.92000961      -4.92000961
        -4.92000961      -4.92000961      -4.92000961      -4.92000961      -4.92000961      -4.92000961      -4.92000961      -4.92000961      -4.92000961      -4.92000961      -4.92000961      -4.92000961      -4.92000961      -4.92000961      -4.92000961      -4.92000961      -4.92000961      -4.92000961      -4.92000961      -4.92000961      -4.92000961      -4.92000961      -4.92000961      -4.92000961      -4.92000961      -4.92000961      -4.92000961      -4.92000961      -4.92000961      -4.92000961      -4.92000961      -4.92000961      -4.92000961      -4.92000961      -4.92000961      -4.92000961      -4.92000961      -4.92000961      -4.92000961      -4.92000961      -4.92000961      -4.92000961
        -4.92000961      -4.92000961      -4.92000961      -4.92000961      -4.92000961      -4.92000961      -4.92000961      -4.92000961      -4.92000961      -4.92000961      -4.92000961      -4.92000961      -4.92000961      -4.92000961      -4.92000961      -4.92000961      -4.92000961      -4.92000961      -4.92000961      -4.92000961      -4.92000961      -4.92000961      -4.92000961      -4.92000961      -4.92000961      -4.92000961      -4.92000961      -4.92000961      -4.92000961      -4.92000961      -4.92000961      -4.92000961      -4.92000961      -4.92000961      -4.92000961      -4.92000961      -4.92000961      -4.92000961      -4.92000961      -4.92000961      -4.92000961      -4.92000961
        -4.92000961      -4.92000961      -4.92000961      -4.92000961      -4.92000961      -4.92000961      -4.92000961      -4.92000961      -4.92000961      -4.92000961      -4.92000961      -4.92000961      -4.92000961      -4.92000961      -4.92000961      -4.92000961      -4.92000961      -4.92000961      -4.92000961      -4.92000961      -4.92000961      -4.92000961      -4.92000961      -4.92000961      -4.92000961      -4.92000961      -4.92000961      -4.92000961      -4.92000961      -4.92000961      -4.92000961      -4.92000961      -4.92000961      -4.92000961      -4.92000961      -4.92000961      -4.92000961      -4.92000961      -4.92000961      -4.92000961      -4.92000961      -4.92000961
        -4.92000961      -4.92000961      -4.92000961      -4.92000961      -4.92000961      -4.92000961      -4.92000961      -4.92000961      -4.92000961      -4.92000961      -4.92000961      -4.92000961      -4.92000961      -4.92000961      -4.92000961      -4.92000961      -4.92000961      -4.92000961      -4.92000961      -4.92000961      -4.92000961      -4.92000961      -4.92000961      -4.92000961      -4.92000961      -4.92000961      -4.92000961      -4.92000961      -4.92000961      -4.92000961      -4.92000961      -4.92000961      -4.92000961      -4.92000961      -4.92000961      -4.92000961      -4.92000961      -4.92000961      -4.92000961      -4.92000961      -4.92000961      -4.92000961
        -4.92000961      -4.92000961      -4.92000961      -4.92000961      -4.92000961      -4.92000961      -4.92000961      -4.92000961      -4.92000961      -4.92000961      -4.92000961      -4.92000961      -4.92000961      -4.92000961      -4.92000961      -4.92000961      -4.92000961      -4.92000961      -4.92000961      -4.92000961      -4.92000961      -4.92000961      -4.92000961      -4.92000961      -4.92000961      -4.92000961      -4.92000961      -4.92000961      -4.92000961      -4.92000961      -4.92000961      -4.92000961      -4.92000961      -4.92000961      -4.92000961      -4.92000961      -4.92000961      -4.92000961      -4.92000961      -4.92000961      -4.92000961      -4.92000961
        -4.92000961      -4.92000961      -4.92000961      -4.92000961      -4.92000961      -4.92000961      -4.92000961      -4.92000961      -4.92000961      -4.92000961      -4.92000961      -4.92000961      -4.92000961      -4.92000961      -4.92000961      -4.92000961      -4.92000961      -4.92000961      -4.92000961      -4.92000961      -4.92000961      -4.92000961      -4.92000961      -4.92000961      -4.92000961      -4.92000961      -4.92000961      -4.92000961      -4.92000961      -4.92000961      -4.92000961      -4.92000961      -4.92000961      -4.92000961      -4.92000961      -4.92000961      -4.92000961      -4.92000961      -4.92000961      -4.92000961      -4.92000961      -4.92000961
        -4.92000961      -4.92000961      -4.92000961      -4.92000961      -4.92000961      -4.92000961      -4.92000961      -4.92000961      -4.92000961      -4.92000961      -4.92000961      -4.92000961      -4.92000961      -4.92000961      -4.92000961      -4.92000961      -4.92000961      -4.92000961      -4.92000961      -4.92000961      -4.92000961      -4.92000961      -4.92000961      -4.92000961      -4.92000961      -4.92000961      -4.92000961      -4.92000961      -4.92000961      -4.92000961      -4.92000961      -4.92000961      -4.92000961      -4.92000961      -4.92000961      -4.92000961      -4.92000961      -4.92000961      -4.92000961      -4.92000961      -4.92000961      -4.92000961
        -4.92000961      -4.92000961      -4.92000961      -4.92000961      -4.92000961      -4.92000961      -4.92000961      -4.92000961      -4.92000961      -4.92000961      -4.92000961      -4.92000961      -4.92000961      -4.92000961      -4.92000961      -4.92000961      -4.92000961      -4.92000961      -4.92000961      -4.92000961      -4.92000961      -4.92000961      -4.92000961      -4.92000961      -4.92000961      -4.92000961      -4.92000961      -4.92000961      -4.92000961      -4.92000961      -4.92000961      -4.92000961      -4.92000961      -4.92000961      -4.92000961      -4.92000961      -4.92000961      -4.92000961      -4.92000961      -4.92000961      -4.92000961      -4.92000961
        -4.92000961      -4.92000961      -4.92000961      -4.92000961      -4.92000961      -4.92000961      -4.92000961      -4.92000961      -4.92000961      -4.92000961      -4.92000961      -4.92000961      -4.92000961      -4.92000961      -4.92000961      -4.92000961      -4.92000961      -4.92000961      -4.92000961      -4.92000961      -4.92000961      -4.92000961      -4.92000961      -4.92000961      -4.92000961      -4.92000961      -4.92000961      -4.92000961      -4.92000961      -4.92000961      -4.92000961      -4.92000961      -4.92000961      -4.92000961      -4.92000961      -4.92000961      -4.92000961      -4.92000961      -4.92000961      -4.92000961      -4.92000961      -4.92000961
        -4.92000961      -4.92000961      -4.92000961      -4.92000961      -4.92000961      -4.92000961      -4.92000961      -4.92000961      -4.92000961      -4.92000961      -4.92000961      -4.92000961      -4.92000961      -4.92000961      -4.92000961      -4.92000961      -4.92000961      -4.92000961      -4.92000961      -4.92000961      -4.92000961      -4.92000961      -4.92000961      -4.92000961      -4.92000961      -4.92000961      -4.92000961      -4.92000961      -4.92000961      -4.92000961      -4.92000961      -4.92000961      -4.92000961      -4.92000961      -4.92000961      -4.92000961      -4.92000961      -4.92000961      -4.92000961      -4.92000961      -4.92000961      -4.92000961
  botm  LAYERED
    INTERNAL  FACTOR  1.0
          -5.40000916      -5.40000916      -5.40000916      -5.40000916      -5.40000916      -5.40000916      -5.40000916      -5.40000916      -5.40000916      -5.40000916      -5.40000916      -5.40000916      -5.40000916      -5.40000916      -5.40000916      -5.40000916      -5.40000916      -5.40000916      -5.40000916      -5.40000916      -5.40000916      -5.40000916      -5.40000916      -5.40000916      -5.40000916      -5.40000916      -5.40000916      -5.40000916      -5.40000916      -5.40000916      -5.40000916      -5.40000916      -5.40000916      -5.40000916      -5.40000916      -5.40000916      -5.40000916      -5.40000916      -5.40000916      -5.40000916      -5.40000916      -5.40000916
          -5.40000916      -5.40000916      -5.40000916      -5.40000916      -5.40000916      -5.40000916      -5.40000916      -5.40000916      -5.40000916      -5.40000916      -5.40000916      -5.40000916      -5.40000916      -5.40000916      -5.40000916      -5.40000916      -5.40000916      -5.40000916      -5.40000916      -5.40000916      -5.40000916      -5.40000916      -5.40000916      -5.40000916      -5.40000916      -5.40000916      -5.40000916      -5.40000916      -5.40000916      -5.40000916      -5.40000916      -5.40000916      -5.40000916      -5.40000916      -5.40000916      -5.40000916      -5.40000916      -5.40000916      -5.40000916      -5.40000916      -5.40000916      -5.40000916
          -5.40000916      -5.40000916      -5.40000916      -5.40000916      -5.40000916      -5.40000916      -5.40000916      -5.40000916      -5.40000916      -5.40000916      -5.40000916      -5.40000916      -5.40000916      -5.40000916      -5.40000916      -5.40000916      -5.40000916      -5.40000916      -5.40000916      -5.40000916      -5.40000916      -5.40000916      -5.40000916      -5.40000916      -5.40000916      -5.40000916      -5.40000916      -5.40000916      -5.40000916      -5.40000916      -5.40000916      -5.40000916      -5.40000916      -5.40000916      -5.40000916      -5.40000916      -5.40000916      -5.40000916      -5.40000916      -5.40000916      -5.40000916      -5.40000916
          -5.40000916      -5.40000916      -5.40000916      -5.40000916      -5.40000916      -5.40000916      -5.40000916      -5.40000916      -5.40000916      -5.40000916      -5.40000916      -5.40000916      -5.40000916      -5.40000916      -5.40000916      -5.40000916      -5.40000916      -5.40000916      -5.40000916      -5.40000916      -5.40000916      -5.40000916      -5.40000916      -5.40000916      -5.40000916      -5.40000916      -5.40000916      -5.40000916      -5.40000916      -5.40000916      -5.40000916      -5.40000916      -5.40000916      -5.40000916      -5.40000916      -5.40000916      -5.40000916      -5.40000916      -5.40000916      -5.40000916      -5.40000916      -5.40000916
          -5.40000916      -5.40000916      -5.40000916      -5.40000916      -5.40000916      -5.40000916      -5.40000916      -5.40000916      -5.40000916      -5.40000916      -5.40000916      -5.40000916      -5.40000916      -5.40000916      -5.40000916      -5.40000916      -5.40000916      -5.40000916      -5.40000916      -5.40000916      -5.40000916      -5.40000916      -5.40000916      -5.40000916      -5.40000916      -5.40000916      -5.40000916      -5.40000916      -5.40000916      -5.40000916      -5.40000916      -5.40000916      -5.40000916      -5.40000916      -5.40000916      -5.40000916      -5.40000916      -5.40000916      -5.40000916      -5.40000916      -5.40000916      -5.40000916
          -5.40000916      -5.40000916      -5.40000916      -5.40000916      -5.40000916      -5.40000916      -5.40000916      -5.40000916      -5.40000916      -5.40000916      -5.40000916      -5.40000916      -5.40000916      -5.40000916      -5.40000916      -5.40000916      -5.40000916      -5.40000916      -5.40000916      -5.40000916      -5.40000916      -5.40000916      -5.40000916      -5.40000916      -5.40000916      -5.40000916      -5.40000916      -5.40000916      -5.40000916      -5.40000916      -5.40000916      -5.40000916      -5.40000916      -5.40000916      -5.40000916      -5.40000916      -5.40000916      -5.40000916      -5.40000916      -5.40000916      -5.40000916      -5.40000916
          -5.40000916      -5.40000916      -5.40000916      -5.40000916      -5.40000916      -5.40000916      -5.40000916      -5.40000916      -5.40000916      -5.40000916      -5.40000916      -5.40000916      -5.40000916      -5.40000916      -5.40000916      -5.40000916      -5.40000916      -5.40000916      -5.40000916      -5.40000916      -5.40000916      -5.40000916      -5.40000916      -5.40000916      -5.40000916      -5.40000916      -5.40000916      -5.40000916      -5.40000916      -5.40000916      -5.40000916      -5.40000916      -5.40000916      -5.40000916      -5.40000916      -5.40000916      -5.40000916      -5.40000916      -5.40000916      -5.40000916      -5.40000916      -5.40000916
          -5.40000916      -5.40000916      -5.40000916      -5.40000916      -5.40000916      -5.40000916      -5.40000916      -5.40000916      -5.40000916      -5.40000916      -5.40000916      -5.40000916      -5.40000916      -5.40000916      -5.40000916      -5.40000916      -5.40000916      -5.40000916      -5.40000916      -5.40000916      -5.40000916      -5.40000916      -5.40000916      -5.40000916      -5.40000916      -5.40000916      -5.40000916      -5.40000916      -5.40000916      -5.40000916      -5.40000916      -5.40000916      -5.40000916      -5.40000916      -5.40000916      -5.40000916      -5.40000916      -5.40000916      -5.40000916      -5.40000916      -5.40000916      -5.40000916
          -5.40000916      -5.40000916      -5.40000916      -5.40000916      -5.40000916      -5.40000916      -5.40000916      -5.40000916      -5.40000916      -5.40000916      -5.40000916      -5.40000916      -5.40000916      -5.40000916      -5.40000916      -5.40000916      -5.40000916      -5.40000916      -5.40000916      -5.40000916      -5.40000916      -5.40000916      -5.40000916      -5.40000916      -5.40000916      -5.40000916      -5.40000916      -5.40000916      -5.40000916      -5.40000916      -5.40000916      -5.40000916      -5.40000916      -5.40000916      -5.40000916      -5.40000916      -5.40000916      -5.40000916      -5.40000916      -5.40000916      -5.40000916      -5.40000916
          -5.40000916      -5.40000916      -5.40000916      -5.40000916      -5.40000916      -5.40000916      -5.40000916      -5.40000916      -5.40000916      -5.40000916      -5.40000916      -5.40000916      -5.40000916      -5.40000916      -5.40000916      -5.40000916      -5.40000916      -5.40000916      -5.40000916      -5.40000916      -5.40000916      -5.40000916      -5.40000916      -5.40000916      -5.40000916      -5.40000916      -5.40000916      -5.40000916      -5.40000916      -5.40000916      -5.40000916      -5.40000916      -5.40000916      -5.40000916      -5.40000916      -5.40000916      -5.40000916      -5.40000916      -5.40000916      -5.40000916      -5.40000916      -5.40000916
          -5.40000916      -5.40000916      -5.40000916      -5.40000916      -5.40000916      -5.40000916      -5.40000916      -5.40000916      -5.40000916      -5.40000916      -5.40000916      -5.40000916      -5.40000916      -5.40000916      -5.40000916      -5.40000916      -5.40000916      -5.40000916      -5.40000916      -5.40000916      -5.40000916      -5.40000916      -5.40000916      -5.40000916      -5.40000916      -5.40000916      -5.40000916      -5.40000916      -5.40000916      -5.40000916      -5.40000916      -5.40000916      -5.40000916      -5.40000916      -5.40000916      -5.40000916      -5.40000916      -5.40000916      -5.40000916      -5.40000916      -5.40000916      -5.40000916
          -5.40000916      -5.40000916      -5.40000916      -5.40000916      -5.40000916      -5.40000916      -5.40000916      -5.40000916      -5.40000916      -5.40000916      -5.40000916      -5.40000916      -5.40000916      -5.40000916      -5.40000916      -5.40000916      -5.40000916      -5.40000916      -5.40000916      -5.40000916      -5.40000916      -5.40000916      -5.40000916      -5.40000916      -5.40000916      -5.40000916      -5.40000916      -5.40000916      -5.40000916      -5.40000916      -5.40000916      -5.40000916      -5.40000916      -5.40000916      -5.40000916      -5.40000916      -5.40000916      -5.40000916      -5.40000916      -5.40000916      -5.40000916      -5.40000916
          -5.40000916      -5.40000916      -5.40000916      -5.40000916      -5.40000916      -5.40000916      -5.40000916      -5.40000916      -5.40000916      -5.40000916      -5.40000916      -5.40000916      -5.40000916      -5.40000916      -5.40000916      -5.40000916      -5.40000916      -5.40000916      -5.40000916      -5.40000916      -5.40000916      -5.40000916      -5.40000916      -5.40000916      -5.40000916      -5.40000916      -5.40000916      -5.40000916      -5.40000916      -5.40000916      -5.40000916      -5.40000916      -5.40000916      -5.40000916      -5.40000916      -5.40000916      -5.40000916      -5.40000916      -5.40000916      -5.40000916      -5.40000916      -5.40000916
          -5.40000916      -5.40000916      -5.40000916      -5.40000916      -5.40000916      -5.40000916      -5.40000916      -5.40000916      -5.40000916      -5.40000916      -5.40000916      -5.40000916      -5.40000916      -5.40000916      -5.40000916      -5.40000916      -5.40000916      -5.40000916      -5.40000916      -5.40000916      -5.40000916      -5.40000916      -5.40000916      -5.40000916      -5.40000916      -5.40000916      -5.40000916      -5.40000916      -5.40000916      -5.40000916      -5.40000916      -5.40000916      -5.40000916      -5.40000916      -5.40000916      -5.40000916      -5.40000916      -5.40000916      -5.40000916      -5.40000916      -5.40000916      -5.40000916
          -5.40000916      -5.40000916      -5.40000916      -5.40000916      -5.40000916      -5.40000916      -5.40000916      -5.40000916      -5.40000916      -5.40000916      -5.40000916      -5.40000916      -5.40000916      -5.40000916      -5.40000916      -5.40000916      -5.40000916      -5.40000916      -5.40000916      -5.40000916      -5.40000916      -5.40000916      -5.40000916      -5.40000916      -5.40000916      -5.40000916      -5.40000916      -5.40000916      -5.40000916      -5.40000916      -5.40000916      -5.40000916      -5.40000916      -5.40000916      -5.40000916      -5.40000916      -5.40000916      -5.40000916      -5.40000916      -5.40000916      -5.40000916      -5.40000916
          -5.40000916      -5.40000916      -5.40000916      -5.40000916      -5.40000916      -5.40000916      -5.40000916      -5.40000916      -5.40000916      -5.40000916      -5.40000916      -5.40000916      -5.40000916      -5.40000916      -5.40000916      -5.40000916      -5.40000916      -5.40000916      -5.40000916      -5.40000916      -5.40000916      -5.40000916      -5.40000916      -5.40000916      -5.40000916      -5.40000916      -5.40000916      -5.40000916      -5.40000916      -5.40000916      -5.40000916      -5.40000916      -5.40000916      -5.40000916      -5.40000916      -5.40000916      -5.40000916      -5.40000916      -5.40000916      -5.40000916      -5.40000916      -5.40000916
          -5.40000916      -5.40000916      -5.40000916      -5.40000916      -5.40000916      -5.40000916      -5.40000916      -5.40000916      -5.40000916      -5.40000916      -5.40000916      -5.40000916      -5.40000916      -5.40000916      -5.40000916      -5.40000916      -5.40000916      -5.40000916      -5.40000916      -5.40000916      -5.40000916      -5.40000916      -5.40000916      -5.40000916      -5.40000916      -5.40000916      -5.40000916      -5.40000916      -5.40000916      -5.40000916      -5.40000916      -5.40000916      -5.40000916      -5.40000916      -5.40000916      -5.40000916      -5.40000916      -5.40000916      -5.40000916      -5.40000916      -5.40000916      -5.40000916
          -5.40000916      -5.40000916      -5.40000916      -5.40000916      -5.40000916      -5.40000916      -5.40000916      -5.40000916      -5.40000916      -5.40000916      -5.40000916      -5.40000916      -5.40000916      -5.40000916      -5.40000916      -5.40000916      -5.40000916      -5.40000916      -5.40000916      -5.40000916      -5.40000916      -5.40000916      -5.40000916      -5.40000916      -5.40000916      -5.40000916      -5.40000916      -5.40000916      -5.40000916      -5.40000916      -5.40000916      -5.40000916      -5.40000916      -5.40000916      -5.40000916      -5.40000916      -5.40000916      -5.40000916      -5.40000916      -5.40000916      -5.40000916      -5.40000916
          -5.40000916      -5.40000916      -5.40000916      -5.40000916      -5.40000916      -5.40000916      -5.40000916      -5.40000916      -5.40000916      -5.40000916      -5.40000916      -5.40000916      -5.40000916      -5.40000916      -5.40000916      -5.40000916      -5.40000916      -5.40000916      -5.40000916      -5.40000916      -5.40000916      -5.40000916      -5.40000916      -5.40000916      -5.40000916      -5.40000916      -5.40000916      -5.40000916      -5.40000916      -5.40000916      -5.40000916      -5.40000916      -5.40000916      -5.40000916      -5.40000916      -5.40000916      -5.40000916      -5.40000916      -5.40000916      -5.40000916      -5.40000916      -5.40000916
          -5.40000916      -5.40000916      -5.40000916      -5.40000916      -5.40000916      -5.40000916      -5.40000916      -5.40000916      -5.40000916      -5.40000916      -5.40000916      -5.40000916      -5.40000916      -5.40000916      -5.40000916      -5.40000916      -5.40000916      -5.40000916      -5.40000916      -5.40000916      -5.40000916      -5.40000916      -5.40000916      -5.40000916      -5.40000916      -5.40000916      -5.40000916      -5.40000916      -5.40000916      -5.40000916      -5.40000916      -5.40000916      -5.40000916      -5.40000916      -5.40000916      -5.40000916      -5.40000916      -5.40000916      -5.40000916      -5.40000916      -5.40000916      -5.40000916