# File generated by Flopy version 3.8.2 on 01/22/2025 at 12:06:10.
BEGIN options
  BUDGET  FILEOUT  model_new_resolution_2.cbc
  HEAD  FILEOUT  model_new_resolution_2.hds
END options

BEGIN period  1
  SAVE  HEAD  LAST
  SAVE  BUDGET  LAST
  PRINT  BUDGET  ALL
END period  1

