# File generated by Flopy version 3.8.2 on 01/22/2025 at 12:09:08.
BEGIN options
  COMPLEXITY  moderate
END options

