# File generated by Flopy version 3.9.2 on 06/10/2025 at 16:30:14.
BEGIN options
  SAVE_FLOWS
  SAVE_SPECIFIC_DISCHARGE
  SAVE_SATURATION
END options

BEGIN griddata
  icelltype
    CONSTANT  0
  k  LAYERED
    INTERNAL  FACTOR  1.0
      2.86555121E-07  2.53279183E-07  2.58216289E-07  3.12933878E-07  3.92185086E-07  3.93847988E-05  3.93847988E-05  3.93847988E-05  3.93847988E-05  3.93847988E-05  3.93847988E-05  3.93847988E-05  3.93847988E-05  3.93847988E-05  3.93847988E-05  3.93847988E-05  1.38305538E-07  1.26618346E-07  2.57225201E-05  1.33754071E-07  1.04125693E-05  1.03769462E-05  7.91999446E-06  6.20359424E-06  7.96045970E-06  8.72068631E-06  1.07364713E-05  1.25583774E-05  1.60794425E-05  1.93957858E-05  2.23188927E-05  2.97998286E-05  3.30569237E-05  3.63331419E-05  4.27038758E-05  5.03837837E-05  4.46742779E-05  5.06313554E-05  5.55709230E-05  3.66999739E-05  2.49084205E-05  1.58491566E-05  1.03046605E-05  7.34891637E-06  5.53658947E-06  9.56326971E-07  1.07691176E-06  1.24356711E-06  1.22781125E-06  1.23212249E-06  1.30266824E-06  3.93847988E-05  3.93847988E-05  3.93847988E-05  3.93847988E-05  3.93847988E-05  1.51547295E-06  1.61982518E-06  1.74171726E-06  1.86978195E-06  3.82129947E-05  3.37615238E-05  6.62272578E-05  7.09622109E-05  6.67255372E-05  1.59092437E-04  1.28717598E-04  1.63890232E-04  2.05376913E-04  2.85311078E-04  2.34125677E-04  2.27355456E-04  2.14239728E-04  1.83811149E-04  1.62098149E-04  1.38110874E-04  1.17983553E-04  1.06184183E-04  8.38021879E-05  8.06466196E-05  8.70186268E-05  9.58901219E-05  8.26105752E-05  7.19350573E-05  5.85933631E-05  5.15215506E-05  4.36405790E-05  3.62889477E-05  3.14433782E-05  2.95866139E-05  2.85946189E-05  3.93265327E-05  4.70332161E-05  2.10952585E-05  7.25374818E-08  6.37611279E-08  8.18154646E-08  1.10046109E-07  1.63483222E-07  2.67078377E-07  4.79250275E-07  1.05608422E-06  1.86460557E-06  3.42217572E-06  6.79934237E-05  5.79345797E-05  5.39269895E-05  4.89286003E-06  3.93847988E-05  3.93847988E-05  3.93847988E-05  3.93847988E-05  3.93847988E-05  3.93847988E-05  3.93847988E-05  3.93847988E-05  1.45476611E-06  1.38843234E-06  1.36581866E-06  1.37252766E-06  1.45932597E-06  1.39090048E-06  9.14615271E-07  6.02327248E-07  3.93571980E-07  2.65242107E-07  1.99824669E-07  1.72753744E-07  1.62431533E-07  1.89865929E-07  2.47269924E-07  3.05938642E-07  3.68380057E-07  4.06681892E-07  5.36324137E-07  6.49405138E-07  7.69855603E-07  7.63924334E-07  9.95113282E-07  1.00500756E-06
      2.81638108E-07  1.79895949E-07  2.42489506E-07  3.19193589E-07  3.98600719E-07  5.11842131E-07  3.93847988E-05  3.93847988E-05  3.93847988E-05  3.93847988E-05  3.93847988E-05  3.93847988E-05  3.93847988E-05  3.93847988E-05  3.93847988E-05  3.93847988E-05  1.59956855E-07  1.59734498E-07  1.62388147E-07  1.69884586E-07  8.90855426E-06  6.86321846E-06  2.76819719E-07  5.47375612E-06  8.32772730E-06  1.08036475E-05  1.19954148E-05  1.27513422E-05  2.37842760E-05  3.11828117E-05  3.94991948E-05  3.65432752E-05  5.42455746E-05  5.61631168E-05  6.12278891E-05  6.83330945E-05  8.12878643E-05  8.34012681E-05  6.52512390E-05  3.65757260E-05  2.41530906E-05  1.42736508E-05  9.19234935E-06  6.49968115E-06  5.13782243E-06  3.59969908E-06  9.54138272E-07  1.16872445E-06  1.25393626E-06  1.28487864E-06  1.43916350E-06  1.53966448E-06  1.70752298E-06  1.83772011E-06  1.65872086E-06  1.58926275E-06  1.38230632E-06  1.54211011E-06  1.74231002E-06  6.15967947E-05  8.64785616E-05  7.23880876E-05  1.05185318E-04  1.15251671E-04  1.47910469E-04  1.27715510E-04  1.61950840E-04  1.94911088E-04  2.47264223E-04  2.94313591E-04  2.55610386E-04  2.08732527E-04  1.64317666E-04  1.48277744E-04  1.17641917E-04  1.00711724E-04  8.47753254E-05  7.12288238E-05  6.06348513E-05  5.92426113E-05  6.53230891E-05  6.72855895E-05  6.11805517E-05  5.75765553E-05  4.79745322E-05  4.51872947E-05  2.99914445E-05  2.91774068E-05  2.67068353E-05  2.88353003E-05  3.49685688E-05  4.14297938E-05  4.28259591E-05  3.15345715E-05  2.05044016E-05  8.25160171E-08  1.02246112E-07  1.32494591E-07  1.76985012E-07  2.88535716E-07  4.76946866E-07  8.58441581E-07  1.31898537E-06  2.26800853E-06  8.86658963E-05  1.14371665E-04  9.28332156E-05  6.15715180E-05  9.48548113E-05  3.93847988E-05  3.93847988E-05  3.93847988E-05  3.93847988E-05  3.93847988E-05  3.93847988E-05  3.93847988E-05  2.44503666E-04  1.49770916E-04  1.45411090E-04  1.09044083E-06  1.17272486E-06  1.07609264E-06  8.59892225E-07  5.73005593E-07  3.96807962E-07  2.58053120E-07  1.85270281E-07  1.62972427E-07  1.58826424E-07  1.63301820E-07  2.22883386E-07  2.76661609E-07  3.96051462E-07  4.06656000E-07  4.67893415E-07  5.45342175E-07  5.70461111E-07  6.03360434E-07  7.22878895E-07  8.62301818E-07
      2.46062939E-07  1.82652258E-07  2.44666467E-07  3.35237928E-07  4.16709184E-07  4.79429787E-07  6.67446045E-07  7.68673999E-07  3.93847988E-05  3.93847988E-05  3.93847988E-05  3.93847988E-05  3.93847988E-05  3.93847988E-05  3.93847988E-05  3.93847988E-05  1.82765902E-07  2.05197750E-07  2.16184318E-07  2.35493275E-07  2.67767518E-07  2.97997929E-07  5.80449660E-06  5.87145951E-06  6.84075439E-06  9.50113736E-06  1.30740882E-05  9.22452818E-06  1.30141998E-05  2.45717511E-05  3.67245593E-05  6.54711912E-05  9.52686096E-05  1.05889711E-04  8.73259269E-05  9.19748636E-05  8.06832759E-05  7.60699695E-05  7.11821776E-05  3.46598827E-05  2.04680928E-05  1.68527949E-05  1.05889385E-05  1.18537528E-05  9.82787424E-06  4.62451544E-06  7.98101894E-07  9.90529884E-07  1.16985882E-06  1.26535497E-06  1.45177978E-06  1.76759534E-06  1.77291213E-06  1.80946995E-06  1.45374588E-06  1.54681970E-06  1.39683652E-06  1.55716180E-06  1.71862291E-06  1.03455808E-04  1.09650682E-04  1.16659219E-04  1.29193941E-04  1.40710516E-04  1.43535945E-04  1.58019786E-04  2.07746692E-04  2.19076013E-04  2.59346591E-04  2.52224214E-04  2.05130083E-04  1.64009136E-04  1.27223204E-04  1.20866069E-04  1.10129055E-04  8.51170989E-05  6.63220926E-05  5.42759990E-05  4.37919916E-05  4.48095016E-05  4.94827982E-05  4.91561004E-05  4.79287883E-05  4.42119417E-05  4.24690152E-05  4.01461948E-05  3.04222795E-05  2.54867682E-05  2.47406242E-05  2.54632287E-05  4.20808174E-05  4.89318300E-05  4.65138110E-05  3.86071333E-05  2.00084960E-05  1.14316521E-07  1.39122790E-07  1.58386769E-07  1.84023804E-07  2.50014097E-07  4.03467283E-07  6.94785399E-07  9.49613138E-07  1.43287150E-04  1.03786704E-04  1.32392408E-04  9.88554311E-05  5.91718672E-05  9.05559136E-05  3.93847988E-05  3.93847988E-05  3.93847988E-05  3.93847988E-05  3.93847988E-05  3.93847988E-05  3.93847988E-05  1.79713126E-04  1.06166852E-04  1.43110330E-04  6.14549717E-05  9.01586361E-07  9.03250623E-07  7.31089358E-07  2.59886438E-05  1.19632086E-05  8.58306612E-06  1.90933449E-07  1.80210066E-07  1.54150229E-07  1.38133430E-07  1.72470152E-07  2.24649170E-07  2.50554621E-07  3.36272564E-07  4.00397965E-07  4.17972416E-07  3.95083788E-07  4.66197548E-07  5.32481749E-07  6.71353234E-07
      3.02561915E-07  2.52103121E-07  3.40724057E-07  4.00104398E-07  4.71056609E-07  5.64439915E-07  6.49143260E-07  6.35438937E-07  7.17019930E-07  6.02167688E-07  3.93847988E-05  3.93847988E-05  3.93847988E-05  3.93847988E-05  3.93847988E-05  2.32439859E-07  2.46137688E-07  2.42763889E-07  2.84261830E-07  3.24704388E-07  3.46489657E-07  4.42570837E-07  6.37650032E-07  8.95350183E-07  1.10168276E-06  1.16860303E-06  9.70927704E-06  1.36415392E-05  2.04235421E-05  3.09366442E-05  3.97725526E-05  7.35409049E-05  9.90961271E-05  1.33090420E-04  8.77998100E-05  8.69141586E-05  7.89190381E-05  1.97156010E-06  1.52512212E-06  1.17089235E-06  8.32852152E-07  1.59494230E-05  2.48745400E-05  1.89518305E-05  1.61160297E-05  6.09765266E-06  5.13294299E-06  1.02455192E-06  1.14088198E-06  1.12529438E-06  1.33135973E-06  1.43067393E-06  1.33404944E-06  1.35845858E-06  1.34635866E-06  1.36067990E-06  1.43802208E-06  1.52769439E-06  7.10666936E-05  1.10950597E-04  1.12758127E-04  9.08892689E-05  1.47349958E-04  1.54899419E-04  1.78889532E-04  1.50234438E-04  1.76706511E-04  2.10882063E-04  2.39176879E-04  2.17960944E-04  1.84491466E-04  1.44886915E-04  1.10575107E-04  1.08930435E-04  8.30055069E-05  6.82231184E-05  6.23266460E-05  5.27616758E-05  4.12353984E-05  3.78618897E-05  3.71497408E-05  3.58504149E-05  3.89167617E-05  3.64672815E-05  3.75091622E-05  3.21425359E-05  2.84753223E-05  2.47733969E-05  2.17863326E-05  2.70576238E-05  3.62952669E-05  3.96149699E-05  3.56928103E-05  2.81760094E-05  2.11855604E-05  1.34872650E-07  1.68184854E-07  1.84226280E-07  1.99892369E-07  2.50968640E-07  3.52445483E-07  6.51885159E-07  7.93886102E-07  2.09534890E-04  1.58210678E-04  1.77016191E-04  1.41005657E-04  9.93693611E-05  1.06601095E-04  1.14934162E-04  3.93847988E-05  3.93847988E-05  3.93847988E-05  3.93847988E-05  3.93847988E-05  5.01607587E-07  7.48972598E-05  8.08549230E-05  1.01288861E-04  4.38343013E-05  3.68443143E-05  2.83189966E-05  2.08804850E-05  1.52393741E-05  2.21370847E-05  1.63140812E-05  6.86102658E-06  7.11002076E-06  1.95315380E-07  1.68850931E-07  1.64150350E-07  1.70123442E-07  1.71436071E-07  2.08943121E-07  2.38849196E-07  2.83596648E-07  3.02132150E-07  3.20328581E-07  3.72437313E-07  4.39547250E-07
      3.33645772E-07  3.58339179E-07  3.63801604E-07  5.15740169E-07  5.24922712E-07  5.41779229E-07  5.88376736E-07  5.47153320E-07  5.52328174E-07  4.70922373E-07  3.97982092E-07  3.93847988E-05  3.93847988E-05  2.47729446E-07  2.14397943E-07  2.73272803E-07  3.29041370E-07  3.27416274E-07  3.32720987E-07  3.67779563E-07  4.53856643E-07  6.01481815E-07  8.63019011E-07  3.93847988E-05  3.93847988E-05  3.93847988E-05  3.93847988E-05  3.93847988E-05  3.93847988E-05  2.76574447E-05  3.59834448E-05  6.48751957E-05  9.28897134E-05  1.32150497E-04  1.25710847E-06  1.38264875E-06  1.33586582E-06  1.10775727E-06  9.81561698E-07  7.96182121E-07  6.95214396E-07  4.28628082E-05  2.92769073E-05  2.09179379E-05  1.60549644E-05  1.31615634E-05  1.09131897E-05  9.68571044E-07  9.83224936E-07  9.54010375E-07  7.40447422E-06  9.08115510E-07  8.76280012E-07  9.82120469E-07  1.15592513E-06  1.20254731E-06  3.86034553E-05  8.71885786E-05  8.84244946E-05  1.23656908E-04  1.28269297E-04  1.03635677E-04  1.25161110E-04  1.74809058E-04  1.81867799E-04  1.67624908E-04  1.68319049E-04  1.58603129E-04  2.03783507E-04  1.84900957E-04  1.55231202E-04  1.25740480E-04  1.06053310E-04  9.46165383E-05  7.82230491E-05  6.76836644E-05  5.84622903E-05  5.28200981E-05  3.62968458E-05  3.03751804E-05  2.90965891E-05  3.04351124E-05  3.39276921E-05  3.68879519E-05  3.58665711E-05  2.99104668E-05  2.56364729E-05  2.17458582E-05  1.93673186E-05  2.68220647E-05  3.53042997E-05  3.88030057E-05  3.53083269E-05  3.21604894E-05  2.21711744E-05  1.71292072E-07  1.86248315E-07  1.84510114E-07  2.14155193E-07  2.45183912E-07  3.39236749E-07       0.00133653  3.63621220E-04  3.09720781E-04  3.04666435E-04  1.60737603E-04  1.43925630E-04  1.27145759E-04  1.20344666E-04  1.15333736E-04  1.25053950E-04  3.93847988E-05  3.93847988E-05  9.71326517E-05  9.05558118E-05  1.13440547E-04  5.85354355E-05  8.51177974E-05  6.70154332E-05  2.86223658E-05  2.49188142E-05  1.94600525E-05  2.81668272E-05  2.22369545E-05  1.94514760E-05  1.52869234E-05  1.16157244E-05  2.77105698E-07  2.32269656E-07  2.00204624E-07  1.77742635E-07  1.54769651E-07  1.33455700E-07  1.27993019E-07  1.38572304E-07  1.64753388E-07  1.89995106E-07  2.05260179E-07  2.28683135E-07  2.84393280E-07
      4.32629434E-07  4.14966820E-07  6.22084883E-07  6.93078960E-07  5.66890151E-07  6.45064233E-07  5.87872250E-07  5.25032078E-07  4.66866595E-07  3.81272145E-07  3.24808354E-07  3.11879347E-07  3.19810567E-07  2.70918946E-07  2.70352245E-07  3.14819033E-07  3.31146765E-07  3.00387626E-07  3.22091410E-07  3.57298717E-07  4.90426260E-07  3.93847988E-05  3.93847988E-05  3.93847988E-05  3.93847988E-05  3.93847988E-05  3.93847988E-05  3.93847988E-05  3.93847988E-05  3.93847988E-05  3.93847988E-05  7.48982493E-05  7.96538870E-07  8.36126901E-07  3.93847988E-05  3.93847988E-05  3.93847988E-05  6.60024511E-07  3.93847988E-05  3.93847988E-05  3.93847988E-05  3.93847988E-05  3.93847988E-05  6.98116419E-05  4.97317051E-05  4.14403148E-05  1.54016670E-05  1.38301421E-05  1.21316461E-05  1.18147909E-05  7.37265464E-06  9.69861867E-06  6.74652256E-07  8.37447544E-07  1.04308378E-06  2.57483007E-05  3.53940777E-05  6.90352390E-05  8.73364988E-05  6.49680587E-05  7.79527618E-05  7.17586008E-05  1.27294465E-04  1.54932888E-04  1.77265843E-04  1.72670247E-04  1.54743393E-04  1.41509299E-04  1.69854524E-04  1.60088719E-04  1.38165211E-04  1.13745074E-04  1.01901118E-04  9.40173923E-05  7.91818093E-05  6.62707826E-05  5.83560686E-05  5.25256692E-05  3.35419973E-05  2.72214493E-05  2.59223270E-05  2.42419956E-05  2.71749777E-05  2.99127423E-05  3.07390692E-05  2.67466221E-05  2.37953518E-05  2.34927684E-05  2.22449980E-05  2.58747132E-05  2.86804625E-05  4.41454213E-05  3.36665253E-05  2.07111680E-05  2.30387329E-07  2.25031243E-07  2.25133434E-07  2.13530853E-07  2.19718999E-07  2.30624920E-07  3.01825594E-07  6.92899339E-04  2.86185532E-04  3.10917763E-04  4.55557922E-04  5.80594526E-04  1.62445183E-04  1.67449733E-04  1.30863860E-04  1.19723823E-04  1.10843510E-04  9.14532284E-05  7.55939982E-05  6.69122310E-05  6.19347775E-05  6.48727146E-05  5.54660910E-05  5.48359785E-05  4.48351748E-05  4.26564402E-05  3.42618769E-05  2.86628638E-05  3.64597327E-05  1.65054644E-05  3.32513482E-05  5.65835649E-07  4.47750693E-07  3.05718686E-07  2.50141767E-07  1.65889020E-07  3.93847988E-05  3.93847988E-05  3.93847988E-05  8.48173016E-08  9.01151367E-08  1.01498614E-07  1.14136249E-07  1.33047408E-07  1.47556563E-07  1.89015338E-07
      5.45778391E-07  4.48085530E-07  5.96737152E-07  6.69497069E-07  6.69104963E-07  6.77753633E-07  6.27033614E-07  6.51876974E-07  5.15268880E-07  4.09927338E-07  3.34302712E-07  3.08813867E-07  3.02238249E-07  2.78604261E-07  2.85933197E-07  3.66830051E-07  3.77410259E-07  3.67332717E-07  3.60079554E-07  4.23962490E-07  3.93847988E-05  3.93847988E-05  3.93847988E-05  3.93847988E-05  3.93847988E-05  3.93847988E-05  3.93847988E-05  3.93847988E-05  3.93847988E-05  3.93847988E-05  3.93847988E-05  3.93847988E-05  3.93847988E-05  3.93847988E-05  3.93847988E-05  3.93847988E-05  3.93847988E-05  3.93847988E-05  3.93847988E-05  3.93847988E-05  3.93847988E-05  3.93847988E-05  3.93847988E-05  3.93847988E-05  3.93847988E-05  4.78370384E-05  4.29811844E-05  3.76848766E-05  2.82914261E-05  1.20657787E-05  1.51900504E-05  9.07984668E-06  6.10594554E-07  8.17608509E-07  1.01382682E-06  1.14058230E-06  2.64074333E-05  2.89583932E-05  4.82898868E-05  5.34698738E-05  4.43634635E-05  5.38977874E-05  1.07101107E-04  1.12920439E-04  1.45563361E-04  1.12900401E-04  1.01845748E-04  1.03727900E-04  1.02935905E-04  1.11275098E-04  1.30043016E-04  1.06615735E-04  9.79796168E-05  9.71705231E-05  8.27571421E-05  6.92813555E-05  6.61596423E-05  5.31079859E-05  3.54766089E-05  2.54725783E-05  2.42587612E-05  2.30327641E-05  2.48078886E-05  2.61492969E-05  2.84859434E-05  2.70268592E-05  3.28756068E-05  3.29151771E-05  2.64841219E-05  3.46188244E-05  3.45250701E-05  3.64506232E-05  3.46389461E-05  2.12332397E-05  3.51159912E-07  3.06610218E-07  2.63091977E-07  2.30511915E-07  2.29304376E-07  2.37900011E-07  3.10228133E-05  3.91517860E-05  7.45963829E-04       0.00129127       0.00100185       0.00141919       0.00135834  1.55303613E-04  1.27104009E-04  1.10071145E-04  9.90774715E-05  8.12520520E-05  6.61588347E-05  5.51786688E-05  5.29034405E-05  4.62936441E-05  3.40369879E-05  4.19136559E-05  3.62401261E-05  3.42489147E-05  2.91092292E-05  4.12612098E-05  3.87008258E-05  3.74495867E-05  3.61993334E-05  7.18196247E-07  3.93847988E-05  3.93847988E-05  3.93847988E-05  3.93847988E-05  3.93847988E-05  3.93847988E-05  3.93847988E-05  3.93847988E-05  3.93847988E-05  7.15107049E-08  8.64071978E-08  8.86563996E-08  1.91488234E-05  2.23102597E-05
      7.62944296E-07  7.01529700E-07  7.73831005E-07  8.52806352E-07  8.36508093E-07  7.55799078E-07  7.70190582E-07  5.66855704E-07  6.39532459E-07  4.29295994E-07  3.57623804E-07  3.30920813E-07  3.40793576E-07  3.50165038E-07  3.66003150E-07  4.67212715E-07  5.11563769E-07  4.71770051E-07  5.04944126E-07  5.46474382E-07  3.93847988E-05  3.93847988E-05  3.93847988E-05  3.93847988E-05  3.93847988E-05  3.93847988E-05  3.93847988E-05  3.93847988E-05  3.93847988E-05  3.93847988E-05  3.93847988E-05  3.93847988E-05  3.93847988E-05  3.93847988E-05  3.93847988E-05  3.93847988E-05  3.93847988E-05  3.93847988E-05  3.93847988E-05  3.93847988E-05  3.93847988E-05  3.93847988E-05  3.93847988E-05  3.93847988E-05  3.93847988E-05  4.76596288E-05  4.34119211E-05  3.73242001E-05  2.94116471E-05  2.35826810E-05  1.27646263E-05  9.01648946E-06  6.34793139E-07  7.99802137E-07  9.48459274E-07  9.81158678E-07  2.21154205E-05  2.22105191E-05  3.92750771E-05  2.94183119E-05  4.10219182E-05  3.97840267E-05  7.71455816E-05  8.09229459E-05  1.12752256E-04  1.12617767E-04  1.23646867E-04  1.05076258E-04  8.97220671E-05  8.78538631E-05  1.09285233E-04  1.02047714E-04  9.34498385E-05  9.63128041E-05  8.46406328E-05  6.89671069E-05  7.82977513E-05  5.90824820E-05  4.10299763E-05  2.97479091E-05  2.55231607E-05  2.85487185E-05  3.32758354E-05  3.11477306E-05  3.72350332E-05  3.26373156E-05  4.32125125E-05  4.72409374E-05  3.83664628E-05  4.82290343E-05  3.97940021E-05  3.22844062E-05  1.72648852E-05  2.20258335E-05  3.05764261E-05  4.38045572E-05  5.44915456E-05  5.14489839E-05  4.01067518E-05  3.35379955E-05  8.05420495E-05  1.02124512E-04  6.68057241E-04  5.50176541E-04  7.28464918E-04       0.00151609       0.00360534       0.00180881  1.38387637E-04  1.15325951E-04  9.01496096E-05  7.17730800E-05  5.97994076E-05  5.05623284E-05  4.82498690E-05  4.34550348E-05  2.96107100E-05  4.02631413E-05  3.90232999E-05  3.90891546E-05  2.80026925E-05  4.29254615E-05  4.07055777E-05  9.21034371E-07  3.93847988E-05  3.93847988E-05  3.93847988E-05  3.93847988E-05  3.93847988E-05  3.93847988E-05  3.93847988E-05  3.93847988E-05  3.93847988E-05  3.93847988E-05  3.93847988E-05  5.36768319E-08  6.64559536E-08  7.65214523E-08  1.91797808E-05  2.13201056E-05
      8.83199505E-07  9.14727934E-07  1.21197513E-06  1.24876476E-06  1.29629791E-06  1.28734212E-06  1.15237060E-06  1.02701335E-06  6.47978652E-07  5.88648618E-07  4.30159787E-07  3.51618752E-07  3.70986157E-07  4.39914970E-07  4.85867758E-07  5.57178339E-07  6.35959566E-07  7.48488446E-07  8.24528115E-07  7.60716318E-07  3.93847988E-05  3.93847988E-05  3.93847988E-05  3.93847988E-05  3.93847988E-05  3.93847988E-05  3.93847988E-05  3.93847988E-05  3.93847988E-05  3.93847988E-05  3.93847988E-05  3.93847988E-05  3.93847988E-05  3.93847988E-05  3.93847988E-05  3.93847988E-05  3.93847988E-05  3.93847988E-05  3.93847988E-05  3.93847988E-05  3.93847988E-05  3.93847988E-05  3.93847988E-05  3.93847988E-05  3.93847988E-05  3.93847988E-05  4.39815958E-05  3.88734006E-05  2.82565143E-05  2.42646856E-05  1.56154438E-05  1.21118292E-05  7.16418015E-07  8.75586238E-07  8.68132474E-07  7.74934733E-07  1.71548818E-05  1.96714209E-05  3.60277591E-05  3.32418058E-05  3.69802037E-05  3.63073741E-05  6.66805208E-05  6.18952690E-05  9.02771790E-05  1.13057176E-04  1.09264591E-04  1.26671919E-04  7.52316046E-05  8.08500699E-05  8.07416145E-05  9.37827645E-05  8.54766622E-05  8.39842469E-05  7.51237385E-05  7.72751446E-05  7.79108886E-05  6.35880278E-05  5.14593848E-05  4.00546087E-05  3.30765506E-05  3.74257907E-05  4.93396765E-05  5.53990903E-05  5.45088078E-05  5.60689477E-05  6.17109472E-05  6.52645613E-05  4.92685358E-05  5.90556047E-05  4.40421463E-05  3.21617954E-05  3.17277772E-05  2.40282006E-05  3.09795942E-05  7.01211491E-07  6.82082755E-05  6.13558659E-05  1.00517267E-04  1.25462553E-04  1.46628619E-04  2.20834554E-04  2.75053259E-04  2.11971608E-04  5.04924683E-04       0.00198064       0.00246571  1.83212251E-04  1.47505882E-04  1.15835719E-04  8.98809885E-05  6.67239365E-05  5.14628737E-05  4.45225269E-05  4.00273711E-05  3.42262138E-05  3.09463176E-05  2.87820239E-05  3.04919558E-05  3.49143593E-05  3.86278225E-05  2.12525847E-05  2.13961412E-05  1.07688504E-06  3.93847988E-05  3.93847988E-05  3.93847988E-05  3.93847988E-05  3.93847988E-05  3.93847988E-05  3.93847988E-05  3.93847988E-05  3.93847988E-05  3.93847988E-05  3.93847988E-05  4.95838961E-08  5.56450459E-08  6.17104874E-08  4.55081536E-05  5.42226953E-05
      9.88276952E-07  1.11722227E-06  1.69252996E-06  1.41415967E-06  1.56888996E-06  1.98999260E-06  1.76624974E-06  1.29387831E-06  9.44395026E-07  7.49454728E-07  5.48922458E-07  4.66656871E-07  5.01030911E-07  8.86968191E-05  5.99364455E-07  6.76389845E-07  8.62474224E-07  1.00529053E-06  1.10100802E-06  1.02514457E-06  3.93847988E-05  3.93847988E-05  3.93847988E-05  3.93847988E-05  3.93847988E-05  3.93847988E-05  3.93847988E-05  3.93847988E-05  3.93847988E-05  3.93847988E-05  3.93847988E-05  3.93847988E-05  3.93847988E-05  3.93847988E-05  3.93847988E-05  3.93847988E-05  3.93847988E-05  3.93847988E-05  3.93847988E-05  3.93847988E-05  3.93847988E-05  3.93847988E-05  3.93847988E-05  3.93847988E-05  3.93847988E-05  3.93847988E-05  3.93847988E-05  4.26579645E-05  3.51188537E-05  2.86515678E-05  1.83924712E-05  1.96995279E-05  1.21677085E-05  7.25550365E-07  7.05423190E-07  1.27538260E-05  5.29355077E-07  1.49164161E-05  3.21246844E-05  4.38872594E-05  5.56012346E-05  5.41895388E-05  6.51716327E-05  7.64466968E-05  7.35306894E-05  8.81632077E-05  6.23857850E-05  4.64234436E-05  5.13418054E-05  5.25507130E-05  7.67730089E-05  9.22274121E-05  8.92299504E-05  8.73360113E-05  4.26131010E-05  5.79138832E-05  5.16055588E-05  5.18882080E-05  4.37383314E-05  5.41869376E-05  4.66391502E-05  5.27733027E-05  7.93456347E-05  9.48254383E-05  1.08686436E-04  1.12366579E-04  1.17575604E-04  1.03280763E-04  8.56300467E-05  6.80367375E-05  5.60294138E-05  5.46914489E-05  4.48820647E-05  4.68036487E-05  6.15988247E-05  4.76411406E-05  5.35823056E-05  9.57079756E-05  1.34241913E-04  1.71093998E-04  2.82252469E-04  2.80908891E-04  2.55339284E-04  2.13565130E-04  1.80629082E-04  7.13475805E-04  1.98245893E-04  1.65859456E-04  1.37065188E-04  1.12283175E-04  8.63471723E-05  6.18575286E-05  4.68407270E-05  3.93306145E-05  3.11584154E-05  2.44047369E-05  2.40040154E-05  2.36245160E-05  2.97769839E-05  3.62347964E-05  3.70086891E-05  1.96047586E-05  2.06806671E-05  1.29881221E-06  3.93847988E-05  3.93847988E-05  3.93847988E-05  3.93847988E-05  3.93847988E-05  3.93847988E-05  3.93847988E-05  3.93847988E-05  3.93847988E-05  3.93847988E-05  3.93847988E-05  5.32706643E-08  5.13956593E-08  2.98137747E-05  4.67259815E-05  6.08024930E-05
      1.18093214E-06  1.76673996E-06  2.65651511E-06  2.56857629E-06  1.92946732E-06  1.76268259E-06  2.00381578E-06  1.43706689E-06  9.82987785E-07  6.97194366E-07  3.88638400E-05  4.76509049E-05  1.17943833E-04  1.62861645E-04  1.78980568E-04  1.14537273E-04  9.88872785E-07  1.19354718E-06  1.22241545E-06  1.18494847E-06  3.93847988E-05  3.93847988E-05  3.93847988E-05  3.93847988E-05  3.93847988E-05  3.93847988E-05  3.93847988E-05  3.93847988E-05  3.93847988E-05  3.93847988E-05  3.93847988E-05  3.93847988E-05  3.93847988E-05  3.93847988E-05  3.93847988E-05  3.93847988E-05  3.93847988E-05  3.93847988E-05  3.93847988E-05  3.93847988E-05  3.93847988E-05  3.93847988E-05  3.93847988E-05  3.93847988E-05  3.93847988E-05  3.93847988E-05  3.93847988E-05  3.93847988E-05  3.93847988E-05  2.95111386E-05  3.09895768E-05  3.34088909E-05  1.57205359E-05  1.17837799E-05  1.40792445E-05  1.55528251E-05  1.21450903E-05  2.50738085E-05  4.07315092E-05  4.63342840E-05  5.70287921E-05  7.50422914E-05  7.47380909E-05  8.08407713E-05  5.40342880E-05  3.74243937E-05  3.67645480E-05  2.06193581E-05  2.52234422E-05  2.85190072E-05  3.72705435E-05  3.21572043E-05  3.11691183E-05  1.70444537E-06  1.54554300E-06  3.13725504E-05  4.00439931E-05  3.82859216E-05  5.45832518E-05  4.83540607E-05  5.62534224E-05  7.62308337E-05  9.65084328E-05  1.27279025E-04  1.71819702E-04  1.72860455E-04  1.70606829E-04  1.42068369E-04  1.21487683E-04  9.10221934E-05  7.39338720E-05  7.07561630E-05  7.97820539E-05  8.44838942E-05  1.00196128E-04  1.02378661E-04  8.95064368E-05  1.17058684E-04  1.65487101E-04  2.10965765E-04  2.24725954E-04  2.45365081E-04  2.66469375E-04  2.28549223E-04  1.91945976E-04  2.03993040E-04  2.07246325E-04  1.49711224E-04  1.03955419E-04  8.81939195E-05  8.00515263E-05  6.37059202E-05  4.52657696E-05  3.42920757E-05  2.50935791E-05  2.11318729E-05  2.17700581E-05  2.43237046E-05  3.25795663E-05  4.07825646E-05  2.67983796E-05  2.68143722E-05  1.35245295E-06  1.37980805E-06  3.93847988E-05  3.93847988E-05  3.93847988E-05  3.93847988E-05  3.93847988E-05  3.93847988E-05  3.93847988E-05  3.93847988E-05  3.93847988E-05  3.93847988E-05  3.93847988E-05  6.27683150E-08  4.61034482E-08  3.44212494E-05  4.76161003E-05  6.74929761E-05
      1.87667445E-06  2.84274506E-06  3.95774396E-06  3.41762598E-06  2.72014177E-06  2.35203174E-06  1.87757905E-06  1.43867771E-06  1.02516935E-06  3.59628648E-05  3.48810609E-05  4.68788567E-05  6.64436157E-05  1.59437055E-04  2.52221391E-04  1.88813297E-04  1.07828942E-06  1.12458338E-06  1.20281766E-06  3.93847988E-05  3.93847988E-05  3.93847988E-05  3.93847988E-05  3.93847988E-05  3.93847988E-05  3.93847988E-05  3.93847988E-05  3.93847988E-05  3.93847988E-05  3.93847988E-05  3.93847988E-05  3.93847988E-05  3.93847988E-05  3.93847988E-05  3.93847988E-05  3.93847988E-05  3.93847988E-05  3.93847988E-05  3.93847988E-05  3.93847988E-05  3.93847988E-05  3.93847988E-05  3.93847988E-05  3.93847988E-05  3.93847988E-05  3.93847988E-05  3.93847988E-05  3.93847988E-05  3.93847988E-05  3.93847988E-05  2.85983697E-05  2.70247237E-05  2.34806830E-05  2.58265500E-05  2.27742366E-05  2.87149214E-05  3.85561652E-05  3.28542301E-05  4.11169021E-05  5.83476649E-05  7.14546550E-05  7.53339555E-05  7.32326371E-05  7.75999870E-05  5.42678754E-05  3.24573848E-05  5.70687860E-07  8.92207936E-07  1.47813171E-06  1.14052250E-06  1.45294052E-06  2.00173758E-06  1.86451052E-06  1.73349440E-06  1.51054383E-06  1.39103497E-06  1.20768163E-06  1.02904130E-06  1.02613774E-06  3.61979473E-05  8.80710431E-05  1.14386086E-04  1.39593802E-04  1.70981744E-04  2.28746183E-04  2.57333828E-04  2.13576292E-04  1.62672950E-04  1.09581073E-04  1.12127746E-04  9.13367985E-05  8.17887703E-05  7.96489985E-05  7.91439743E-05  1.17760828E-04  1.40156058E-04  1.18824413E-04  1.26523606E-04  1.45154787E-04  1.78447794E-04  2.12453000E-04  2.46741285E-04  2.81394925E-04  2.69212120E-04  2.26823802E-04  2.22895280E-04  2.01476811E-04  1.39884549E-04  1.05062943E-04  8.09513513E-05  6.84366460E-05  5.23229537E-05  4.29433494E-05  3.49787115E-05  2.55956511E-05  2.13073763E-05  2.04438802E-05  2.29791585E-05  3.23429340E-05  4.57222741E-05  3.93349837E-05  2.42979750E-05  1.68647548E-05  1.60844775E-06  1.80659072E-06  3.93847988E-05  3.93847988E-05  3.93847988E-05  3.93847988E-05  3.93847988E-05  3.93847988E-05  3.93847988E-05  3.93847988E-05  3.93847988E-05  3.93847988E-05  7.09983539E-08  5.08638216E-08  4.13314325E-08  2.66002735E-05  4.45554324E-05
      3.47373789E-05  3.38151040E-06  4.69641327E-06  4.21598861E-06  2.98558962E-06  2.65165477E-06  6.47453126E-05  3.33194221E-05  3.85675921E-05  3.28135175E-05  3.66569147E-05  5.02165640E-05  7.03864425E-05  2.35355576E-04  2.55920226E-04  2.16802538E-04  1.05336578E-04  1.03450338E-06  1.10252859E-06  3.93847988E-05  3.93847988E-05  3.93847988E-05  3.93847988E-05  3.93847988E-05  3.93847988E-05  3.93847988E-05  3.93847988E-05  3.93847988E-05  3.93847988E-05  3.93847988E-05  3.93847988E-05  3.93847988E-05  3.93847988E-05  3.93847988E-05  3.93847988E-05  3.93847988E-05  3.93847988E-05  3.93847988E-05  3.93847988E-05  3.93847988E-05  3.93847988E-05  3.93847988E-05  3.93847988E-05  3.93847988E-05  3.93847988E-05  3.93847988E-05  3.93847988E-05  3.93847988E-05  3.93847988E-05  3.93847988E-05  3.93847988E-05  2.25419553E-05  2.33323190E-05  2.44994117E-05  3.22073465E-05  4.10844768E-05  5.06836695E-05  4.58023569E-05  5.83146066E-05  7.13571644E-05  6.08281262E-05  6.25676257E-05  6.93982438E-05  5.70975826E-05  4.14758724E-05  1.77257480E-05  6.69857172E-07  1.21030121E-06  1.50815811E-06  1.52519146E-06  1.98857674E-06  1.71436784E-06  1.99892838E-06  1.53628480E-06  1.14621662E-06  1.10091196E-06  1.07396545E-06  8.23813480E-07  7.64471679E-07  7.12065003E-07  7.55592773E-05  1.38630669E-04  2.17242821E-04  2.78496562E-04  3.56063800E-04  3.50301765E-04  2.65303155E-04  1.99627335E-04  1.44231250E-04  1.43167825E-04  1.42076868E-04  1.14625604E-04  1.00916637E-04  9.15610362E-05  9.66795851E-05  1.06711101E-04  1.17307754E-04  1.03304134E-04  1.28908927E-04  1.41132681E-04  1.87875863E-04  2.48305121E-04  3.12378310E-04  3.12522636E-04  3.08140588E-04  2.61451903E-04  2.23261522E-04  1.44343416E-04  9.60718025E-05  7.33246052E-05  5.59154105E-05  4.34704380E-05  3.53848736E-05  3.27031921E-05  2.36131655E-05  2.04494881E-05  2.08331985E-05  2.46706677E-05  3.18892271E-05  3.77372635E-05  3.15350590E-05  2.25119911E-05  1.42978570E-05  2.05105175E-06  2.19839808E-06  1.75314483E-06  3.93847988E-05  3.93847988E-05  3.93847988E-05  3.93847988E-05  3.93847988E-05  3.93847988E-05  3.93847988E-05  3.93847988E-05  3.93847988E-05  1.14227518E-07  7.67509363E-08  2.65016461E-05  2.46058753E-05  3.84828927E-05