# File generated by Flopy version 3.9.1 on 04/22/2025 at 12:10:36.
BEGIN options
END options

BEGIN timing
  TDIS6  test_prt.tdis
END timing

BEGIN models
  prt6  test_prt.nam  test_prt
END models

BEGIN exchanges
END exchanges

BEGIN solutiongroup  1
  ems6  test_prt.ems  test_prt
END solutiongroup  1

