# File generated by Flopy version 3.9.3 on 07/23/2025 at 15:51:49.
BEGIN options
  XORIGIN     102.00000000
  YORIGIN     105.00000000
END options

BEGIN dimensions
  NLAY  6
  NCPL  600
  NVERT  677
END dimensions

BEGIN griddata
  top
    INTERNAL  FACTOR  1.0
        -6.00000000      -6.00000000      -6.00000000      -6.00000000      -6.00000000      -6.00000000      -6.00000000      -6.00000000      -6.00000000      -6.00000000      -6.00000000      -6.00000000      -6.00000000      -6.00000000      -6.00000000      -6.00000000      -6.00000000      -6.00000000      -6.00000000      -6.00000000
        -6.00000000      -6.00000000      -6.00000000      -6.00000000      -6.00000000      -6.00000000      -6.00000000      -6.00000000      -6.00000000      -6.00000000      -6.00000000      -6.00000000      -6.00000000      -6.00000000      -6.00000000      -6.00000000      -6.00000000      -6.00000000      -6.00000000      -6.00000000
        -6.00000000      -6.00000000      -6.00000000      -6.00000000      -6.00000000      -6.00000000      -6.00000000      -6.00000000      -6.00000000      -6.00000000      -6.00000000      -6.00000000      -6.00000000      -6.00000000      -6.00000000      -6.00000000      -6.00000000      -6.00000000      -6.00000000      -6.00000000
        -6.00000000      -6.00000000      -6.00000000      -6.00000000      -6.00000000      -6.00000000      -6.00000000      -6.00000000      -6.00000000      -6.00000000      -6.00000000      -6.00000000      -6.00000000      -6.00000000      -6.00000000      -6.00000000      -6.00000000      -6.00000000      -6.00000000      -6.00000000
        -6.00000000      -6.00000000      -6.00000000      -6.00000000      -6.00000000      -6.00000000      -6.00000000      -6.00000000      -6.00000000      -6.00000000      -6.00000000      -6.00000000      -6.00000000      -6.00000000      -6.00000000      -6.00000000      -6.00000000      -6.00000000      -6.00000000      -6.00000000
        -6.00000000      -6.00000000      -6.00000000      -6.00000000      -6.00000000      -6.00000000      -6.00000000      -6.00000000      -6.00000000      -6.00000000      -6.00000000      -6.00000000      -6.00000000      -6.00000000      -6.00000000      -6.00000000      -6.00000000      -6.00000000      -6.00000000      -6.00000000
        -6.00000000      -6.00000000      -6.00000000      -6.00000000      -6.00000000      -6.00000000      -6.00000000      -6.00000000      -6.00000000      -6.00000000      -6.00000000      -6.00000000      -6.00000000      -6.00000000      -6.00000000      -6.00000000      -6.00000000      -6.00000000      -6.00000000      -6.00000000
        -6.00000000      -6.00000000      -6.00000000      -6.00000000      -6.00000000      -6.00000000      -6.00000000      -6.00000000      -6.00000000      -6.00000000      -6.00000000      -6.00000000      -6.00000000      -6.00000000      -6.00000000      -6.00000000      -6.00000000      -6.00000000      -6.00000000      -6.00000000
        -6.00000000      -6.00000000      -6.00000000      -6.00000000      -6.00000000      -6.00000000      -6.00000000      -6.00000000      -6.00000000      -6.00000000      -6.00000000      -6.00000000      -6.00000000      -6.00000000      -6.00000000      -6.00000000      -6.00000000      -6.00000000      -6.00000000      -6.00000000
        -6.00000000      -6.00000000      -6.00000000      -6.00000000      -6.00000000      -6.00000000      -6.00000000      -6.00000000      -6.00000000      -6.00000000      -6.00000000      -6.00000000      -6.00000000      -6.00000000      -6.00000000      -6.00000000      -6.00000000      -6.00000000      -6.00000000      -6.00000000
        -6.00000000      -6.00000000      -6.00000000      -6.00000000      -6.00000000      -6.00000000      -6.00000000      -6.00000000      -6.00000000      -6.00000000      -6.00000000      -6.00000000      -6.00000000      -6.00000000      -6.00000000      -6.00000000      -6.00000000      -6.00000000      -6.00000000      -6.00000000
        -6.00000000      -6.00000000      -6.00000000      -6.00000000      -6.00000000      -6.00000000      -6.00000000      -6.00000000      -6.00000000      -6.00000000      -6.00000000      -6.00000000      -6.00000000      -6.00000000      -6.00000000      -6.00000000      -6.00000000      -6.00000000      -6.00000000      -6.00000000
        -6.00000000      -6.00000000      -6.00000000      -6.00000000      -6.00000000      -6.00000000      -6.00000000      -6.00000000      -6.00000000      -6.00000000      -6.00000000      -6.00000000      -6.00000000      -6.00000000      -6.00000000      -6.00000000      -6.00000000      -6.00000000      -6.00000000      -6.00000000
        -6.00000000      -6.00000000      -6.00000000      -6.00000000      -6.00000000      -6.00000000      -6.00000000      -6.00000000      -6.00000000      -6.00000000      -6.00000000      -6.00000000      -6.00000000      -6.00000000      -6.00000000      -6.00000000      -6.00000000      -6.00000000      -6.00000000      -6.00000000
        -6.00000000      -6.00000000      -6.00000000      -6.00000000      -6.00000000      -6.00000000      -6.00000000      -6.00000000      -6.00000000      -6.00000000      -6.00000000      -6.00000000      -6.00000000      -6.00000000      -6.00000000      -6.00000000      -6.00000000      -6.00000000      -6.00000000      -6.00000000
        -6.00000000      -6.00000000      -6.00000000      -6.00000000      -6.00000000      -6.00000000      -6.00000000      -6.00000000      -6.00000000      -6.00000000      -6.00000000      -6.00000000      -6.00000000      -6.00000000      -6.00000000      -6.00000000      -6.00000000      -6.00000000      -6.00000000      -6.00000000
        -6.00000000      -6.00000000      -6.00000000      -6.00000000      -6.00000000      -6.00000000      -6.00000000      -6.00000000      -6.00000000      -6.00000000      -6.00000000      -6.00000000      -6.00000000      -6.00000000      -6.00000000      -6.00000000      -6.00000000      -6.00000000      -6.00000000      -6.00000000
        -6.00000000      -6.00000000      -6.00000000      -6.00000000      -6.00000000      -6.00000000      -6.00000000      -6.00000000      -6.00000000      -6.00000000      -6.00000000      -6.00000000      -6.00000000      -6.00000000      -6.00000000      -6.00000000      -6.00000000      -6.00000000      -6.00000000      -6.00000000
        -6.00000000      -6.00000000      -6.00000000      -6.00000000      -6.00000000      -6.00000000      -6.00000000      -6.00000000      -6.00000000      -6.00000000      -6.00000000      -6.00000000      -6.00000000      -6.00000000      -6.00000000      -6.00000000      -6.00000000      -6.00000000      -6.00000000      -6.00000000
        -6.00000000      -6.00000000      -6.00000000      -6.00000000      -6.00000000      -6.00000000      -6.00000000      -6.00000000      -6.00000000      -6.00000000      -6.00000000      -6.00000000      -6.00000000      -6.00000000      -6.00000000      -6.00000000      -6.00000000      -6.00000000      -6.00000000      -6.00000000
        -6.00000000      -6.00000000      -6.00000000      -6.00000000      -6.00000000      -6.00000000      -6.00000000      -6.00000000      -6.00000000      -6.00000000      -6.00000000      -6.00000000      -6.00000000      -6.00000000      -6.00000000      -6.00000000      -6.00000000      -6.00000000      -6.00000000      -6.00000000
        -6.00000000      -6.00000000      -6.00000000      -6.00000000      -6.00000000      -6.00000000      -6.00000000      -6.00000000      -6.00000000      -6.00000000      -6.00000000      -6.00000000      -6.00000000      -6.00000000      -6.00000000      -6.00000000      -6.00000000      -6.00000000      -6.00000000      -6.00000000
        -6.00000000      -6.00000000      -6.00000000      -6.00000000      -6.00000000      -6.00000000      -6.00000000      -6.00000000      -6.00000000      -6.00000000      -6.00000000      -6.00000000      -6.00000000      -6.00000000      -6.00000000      -6.00000000      -6.00000000      -6.00000000      -6.00000000      -6.00000000
        -6.00000000      -6.00000000      -6.00000000      -6.00000000      -6.00000000      -6.00000000      -6.00000000      -6.00000000      -6.00000000      -6.00000000      -6.00000000      -6.00000000      -6.00000000      -6.00000000      -6.00000000      -6.00000000      -6.00000000      -6.00000000      -6.00000000      -6.00000000
        -6.00000000      -6.00000000      -6.00000000      -6.00000000      -6.00000000      -6.00000000      -6.00000000      -6.00000000      -6.00000000      -6.00000000      -6.00000000      -6.00000000      -6.00000000      -6.00000000      -6.00000000      -6.00000000      -6.00000000      -6.00000000      -6.00000000      -6.00000000
        -6.00000000      -6.00000000      -6.00000000      -6.00000000      -6.00000000      -6.00000000      -6.00000000      -6.00000000      -6.00000000      -6.00000000      -6.00000000      -6.00000000      -6.00000000      -6.00000000      -6.00000000      -6.00000000      -6.00000000      -6.00000000      -6.00000000      -6.00000000
        -6.00000000      -6.00000000      -6.00000000      -6.00000000      -6.00000000      -6.00000000      -6.00000000      -6.00000000      -6.00000000      -6.00000000      -6.00000000      -6.00000000      -6.00000000      -6.00000000      -6.00000000      -6.00000000      -6.00000000      -6.00000000      -6.00000000      -6.00000000
        -6.00000000      -6.00000000      -6.00000000      -6.00000000      -6.00000000      -6.00000000      -6.00000000      -6.00000000      -6.00000000      -6.00000000      -6.00000000      -6.00000000      -6.00000000      -6.00000000      -6.00000000      -6.00000000      -6.00000000      -6.00000000      -6.00000000      -6.00000000
        -6.00000000      -6.00000000      -6.00000000      -6.00000000      -6.00000000      -6.00000000      -6.00000000      -6.00000000      -6.00000000      -6.00000000      -6.00000000      -6.00000000      -6.00000000      -6.00000000      -6.00000000      -6.00000000      -6.00000000      -6.00000000      -6.00000000      -6.00000000
        -6.00000000      -6.00000000      -6.00000000      -6.00000000      -6.00000000      -6.00000000      -6.00000000      -6.00000000      -6.00000000      -6.00000000      -6.00000000      -6.00000000      -6.00000000      -6.00000000      -6.00000000      -6.00000000      -6.00000000      -6.00000000      -6.00000000      -6.00000000
  botm  LAYERED
    INTERNAL  FACTOR  1.0
          -6.50000000      -6.50000000      -6.50000000      -6.50000000      -6.50000000      -6.50000000      -6.50000000      -6.50000000      -6.50000000      -6.50000000      -6.50000000      -6.50000000      -6.50000000      -6.50000000      -6.50000000      -6.50000000      -6.50000000      -6.50000000      -6.50000000      -6.50000000
          -6.50000000      -6.50000000      -6.50000000      -6.50000000      -6.50000000      -6.50000000      -6.50000000      -6.50000000      -6.50000000      -6.50000000      -6.50000000      -6.50000000      -6.50000000      -6.50000000      -6.50000000      -6.50000000      -6.50000000      -6.50000000      -6.50000000      -6.50000000
          -6.50000000      -6.50000000      -6.50000000      -6.50000000      -6.50000000      -6.50000000      -6.50000000      -6.50000000      -6.50000000      -6.50000000      -6.50000000      -6.50000000      -6.50000000      -6.50000000      -6.50000000      -6.50000000      -6.50000000      -6.50000000      -6.50000000      -6.50000000
          -6.50000000      -6.50000000      -6.50000000      -6.50000000      -6.50000000      -6.50000000      -6.50000000      -6.50000000      -6.50000000      -6.50000000      -6.50000000      -6.50000000      -6.50000000      -6.50000000      -6.50000000      -6.50000000      -6.50000000      -6.50000000      -6.50000000      -6.50000000
          -6.50000000      -6.50000000      -6.50000000      -6.50000000      -6.50000000      -6.50000000      -6.50000000      -6.50000000      -6.50000000      -6.50000000      -6.50000000      -6.50000000      -6.50000000      -6.50000000      -6.50000000      -6.50000000      -6.50000000      -6.50000000      -6.50000000      -6.50000000
          -6.50000000      -6.50000000      -6.50000000      -6.50000000      -6.50000000      -6.50000000      -6.50000000      -6.50000000      -6.50000000      -6.50000000      -6.50000000      -6.50000000      -6.50000000      -6.50000000      -6.50000000      -6.50000000      -6.50000000      -6.50000000      -6.50000000      -6.50000000
          -6.50000000      -6.50000000      -6.50000000      -6.50000000      -6.50000000      -6.50000000      -6.50000000      -6.50000000      -6.50000000      -6.50000000      -6.50000000      -6.50000000      -6.50000000      -6.50000000      -6.50000000      -6.50000000      -6.50000000      -6.50000000      -6.50000000      -6.50000000
          -6.50000000      -6.50000000      -6.50000000      -6.50000000      -6.50000000      -6.50000000      -6.50000000      -6.50000000      -6.50000000      -6.50000000      -6.50000000      -6.50000000      -6.50000000      -6.50000000      -6.50000000      -6.50000000      -6.50000000      -6.50000000      -6.50000000      -6.50000000
          -6.50000000      -6.50000000      -6.50000000      -6.50000000      -6.50000000      -6.50000000      -6.50000000      -6.50000000      -6.50000000      -6.50000000      -6.50000000      -6.50000000      -6.50000000      -6.50000000      -6.50000000      -6.50000000      -6.50000000      -6.50000000      -6.50000000      -6.50000000
          -6.50000000      -6.50000000      -6.50000000      -6.50000000      -6.50000000      -6.50000000      -6.50000000      -6.50000000      -6.50000000      -6.50000000      -6.50000000      -6.50000000      -6.50000000      -6.50000000      -6.50000000      -6.50000000      -6.50000000      -6.50000000      -6.50000000      -6.50000000
          -6.50000000      -6.50000000      -6.50000000      -6.50000000      -6.50000000      -6.50000000      -6.50000000      -6.50000000      -6.50000000      -6.50000000      -6.50000000      -6.50000000      -6.50000000      -6.50000000      -6.50000000      -6.50000000      -6.50000000      -6.50000000      -6.50000000      -6.50000000
          -6.50000000      -6.50000000      -6.50000000      -6.50000000      -6.50000000      -6.50000000      -6.50000000      -6.50000000      -6.50000000      -6.50000000      -6.50000000      -6.50000000      -6.50000000      -6.50000000      -6.50000000      -6.50000000      -6.50000000      -6.50000000      -6.50000000      -6.50000000
          -6.50000000      -6.50000000      -6.50000000      -6.50000000      -6.50000000      -6.50000000      -6.50000000      -6.50000000      -6.50000000      -6.50000000      -6.50000000      -6.50000000      -6.50000000      -6.50000000      -6.50000000      -6.50000000      -6.50000000      -6.50000000      -6.50000000      -6.50000000
          -6.50000000      -6.50000000      -6.50000000      -6.50000000      -6.50000000      -6.50000000      -6.50000000      -6.50000000      -6.50000000      -6.50000000      -6.50000000      -6.50000000      -6.50000000      -6.50000000      -6.50000000      -6.50000000      -6.50000000      -6.50000000      -6.50000000      -6.50000000
          -6.50000000      -6.50000000      -6.50000000      -6.50000000      -6.50000000      -6.50000000      -6.50000000      -6.50000000      -6.50000000      -6.50000000      -6.50000000      -6.50000000      -6.50000000      -6.50000000      -6.50000000      -6.50000000      -6.50000000      -6.50000000      -6.50000000      -6.50000000
          -6.50000000      -6.50000000      -6.50000000      -6.50000000      -6.50000000      -6.50000000      -6.50000000      -6.50000000      -6.50000000      -6.50000000      -6.50000000      -6.50000000      -6.50000000      -6.50000000      -6.50000000      -6.50000000      -6.50000000      -6.50000000      -6.50000000      -6.50000000
          -6.50000000      -6.50000000      -6.50000000      -6.50000000      -6.50000000      -6.50000000      -6.50000000      -6.50000000      -6.50000000      -6.50000000      -6.50000000      -6.50000000      -6.50000000      -6.50000000      -6.50000000      -6.50000000      -6.50000000      -6.50000000      -6.50000000      -6.50000000
          -6.50000000      -6.50000000      -6.50000000      -6.50000000      -6.50000000      -6.50000000      -6.50000000      -6.50000000      -6.50000000      -6.50000000      -6.50000000      -6.50000000      -6.50000000      -6.50000000      -6.50000000      -6.50000000      -6.50000000      -6.50000000      -6.50000000      -6.50000000
          -6.50000000      -6.50000000      -6.50000000      -6.50000000      -6.50000000      -6.50000000      -6.50000000      -6.50000000      -6.50000000      -6.50000000      -6.50000000      -6.50000000      -6.50000000      -6.50000000      -6.50000000      -6.50000000      -6.50000000      -6.50000000      -6.50000000      -6.50000000
          -6.50000000      -6.50000000      -6.50000000      -6.50000000      -6.50000000      -6.50000000      -6.50000000      -6.50000000      -6.50000000      -6.50000000      -6.50000000      -6.50000000      -6.50000000      -6.50000000      -6.50000000      -6.50000000      -6.50000000      -6.50000000      -6.50000000      -6.50000000
          -6.50000000      -6.50000000      -6.50000000      -6.50000000      -6.50000000      -6.50000000      -6.50000000      -6.50000000      -6.50000000      -6.50000000      -6.50000000      -6.50000000      -6.50000000      -6.50000000      -6.50000000      -6.50000000      -6.50000000      -6.50000000      -6.50000000      -6.50000000
          -6.50000000      -6.50000000      -6.50000000      -6.50000000      -6.50000000      -6.50000000      -6.50000000      -6.50000000      -6.50000000      -6.50000000      -6.50000000      -6.50000000      -6.50000000      -6.50000000      -6.50000000      -6.50000000      -6.50000000      -6.50000000      -6.50000000      -6.50000000
          -6.50000000      -6.50000000      -6.50000000      -6.50000000      -6.50000000      -6.50000000      -6.50000000      -6.50000000      -6.50000000      -6.50000000      -6.50000000      -6.50000000      -6.50000000      -6.50000000      -6.50000000      -6.50000000      -6.50000000      -6.50000000      -6.50000000      -6.50000000
          -6.50000000      -6.50000000      -6.50000000      -6.50000000      -6.50000000      -6.50000000      -6.50000000      -6.50000000      -6.50000000      -6.50000000      -6.50000000      -6.50000000      -6.50000000      -6.50000000      -6.50000000      -6.50000000      -6.50000000      -6.50000000      -6.50000000      -6.50000000
          -6.50000000      -6.50000000      -6.50000000      -6.50000000      -6.50000000      -6.50000000      -6.50000000      -6.50000000      -6.50000000      -6.50000000      -6.50000000      -6.50000000      -6.50000000      -6.50000000      -6.50000000      -6.50000000      -6.50000000      -6.50000000      -6.50000000      -6.50000000
          -6.50000000      -6.50000000      -6.50000000      -6.50000000      -6.50000000      -6.50000000      -6.50000000      -6.50000000      -6.50000000      -6.50000000      -6.50000000      -6.50000000      -6.50000000      -6.50000000      -6.50000000      -6.50000000      -6.50000000      -6.50000000      -6.50000000      -6.50000000
          -6.50000000      -6.50000000      -6.50000000      -6.50000000      -6.50000000      -6.50000000      -6.50000000      -6.50000000      -6.50000000      -6.50000000      -6.50000000      -6.50000000      -6.50000000      -6.50000000      -6.50000000      -6.50000000      -6.50000000      -6.50000000      -6.50000000      -6.50000000
          -6.50000000      -6.50000000      -6.50000000      -6.50000000      -6.50000000      -6.50000000      -6.50000000      -6.50000000      -6.50000000      -6.50000000      -6.50000000      -6.50000000      -6.50000000      -6.50000000      -6.50000000      -6.50000000      -6.50000000      -6.50000000      -6.50000000      -6.50000000
          -6.50000000      -6.50000000      -6.50000000      -6.50000000      -6.50000000      -6.50000000      -6.50000000      -6.50000000      -6.50000000      -6.50000000      -6.50000000      -6.50000000      -6.50000000      -6.50000000      -6.50000000      -6.50000000      -6.50000000      -6.50000000      -6.50000000      -6.50000000
          -6.50000000      -6.50000000      -6.50000000      -6.50000000      -6.50000000      -6.50000000      -6.50000000      -6.50000000      -6.50000000      -6.50000000      -6.50000000      -6.50000000      -6.50000000      -6.50000000      -6.50000000      -6.50000000      -6.50000000      -6.50000000      -6.50000000      -6.50000000
    INTERNAL  FACTOR  1.0
          -8.19999981      -8.19999981      -8.19999981      -8.19999981      -8.19999981      -8.19999981      -8.19999981      -8.19999981      -8.19999981      -8.19999981      -8.19999981      -8.19999981      -8.19999981      -8.19999981      -8.19999981      -8.19999981      -8.19999981      -8.19999981      -8.19999981      -8.19999981
          -8.19999981      -8.19999981      -8.19999981      -8.19999981      -8.19999981      -8.19999981      -8.19999981      -8.19999981      -8.19999981      -8.19999981      -8.19999981      -8.19999981      -8.19999981      -8.19999981      -8.19999981      -8.19999981      -8.19999981      -8.19999981      -8.19999981      -8.19999981
          -8.19999981      -8.19999981      -8.19999981      -8.19999981      -8.19999981      -8.19999981      -8.19999981      -8.19999981      -8.19999981      -8.19999981      -8.19999981      -8.19999981      -8.19999981      -8.19999981      -8.19999981      -8.19999981      -8.19999981      -8.19999981      -8.19999981      -8.19999981
          -8.19999981      -8.19999981      -8.19999981      -8.19999981      -8.19999981      -8.19999981      -8.19999981      -8.19999981      -8.19999981      -8.19999981      -8.19999981      -8.19999981      -8.19999981      -8.19999981      -8.19999981      -8.19999981      -8.19999981      -8.19999981      -8.19999981      -8.19999981
          -8.19999981      -8.19999981      -8.19999981      -8.19999981      -8.19999981      -8.19999981      -8.19999981      -8.19999981      -8.19999981      -8.19999981      -8.19999981      -8.19999981      -8.19999981      -8.19999981      -8.19999981      -8.19999981      -8.19999981      -8.19999981      -8.19999981      -8.19999981
          -8.19999981      -8.19999981      -8.19999981      -8.19999981      -8.19999981      -8.19999981      -8.19999981      -8.19999981      -8.19999981      -8.19999981      -8.19999981      -8.19999981      -8.19999981      -8.19999981      -8.19999981      -8.19999981      -8.19999981      -8.19999981      -8.19999981      -8.19999981
          -8.19999981      -8.19999981      -8.19999981      -8.19999981      -8.19999981      -8.19999981      -8.19999981      -8.19999981      -8.19999981      -8.19999981      -8.19999981      -8.19999981      -8.19999981      -8.19999981      -8.19999981      -8.19999981      -8.19999981      -8.19999981      -8.19999981      -8.19999981
          -8.19999981      -8.19999981      -8.19999981      -8.19999981      -8.19999981      -8.19999981      -8.19999981      -8.19999981      -8.19999981      -8.19999981      -8.19999981      -8.19999981      -8.19999981      -8.19999981      -8.19999981      -8.19999981      -8.19999981      -8.19999981      -8.19999981      -8.19999981
          -8.19999981      -8.19999981      -8.19999981      -8.19999981      -8.19999981      -8.19999981      -8.19999981      -8.19999981      -8.19999981      -8.19999981      -8.19999981      -8.19999981      -8.19999981      -8.19999981      -8.19999981      -8.19999981      -8.19999981      -8.19999981      -8.19999981      -8.19999981
          -8.19999981      -8.19999981      -8.19999981      -8.19999981      -8.19999981      -8.19999981      -8.19999981      -8.19999981      -8.19999981      -8.19999981      -8.19999981      -8.19999981      -8.19999981      -8.19999981      -8.19999981      -8.19999981      -8.19999981      -8.19999981      -8.19999981      -8.19999981
          -8.19999981      -8.19999981      -8.19999981      -8.19999981      -8.19999981      -8.19999981      -8.19999981      -8.19999981      -8.19999981      -8.19999981      -8.19999981      -8.19999981      -8.19999981      -8.19999981      -8.19999981      -8.19999981      -8.19999981      -8.19999981      -8.19999981      -8.19999981
          -8.19999981      -8.19999981      -8.19999981      -8.19999981      -8.19999981      -8.19999981      -8.19999981      -8.19999981      -8.19999981      -8.19999981      -8.19999981      -8.19999981      -8.19999981      -8.19999981      -8.19999981      -8.19999981      -8.19999981      -8.19999981      -8.19999981      -8.19999981
          -8.19999981      -8.19999981      -8.19999981      -8.19999981      -8.19999981      -8.19999981      -8.19999981      -8.19999981      -8.19999981      -8.19999981      -8.19999981      -8.19999981      -8.19999981      -8.19999981      -8.19999981      -8.19999981      -8.19999981      -8.19999981      -8.19999981      -8.19999981
          -8.19999981      -8.19999981      -8.19999981      -8.19999981      -8.19999981      -8.19999981      -8.19999981      -8.19999981      -8.19999981      -8.19999981      -8.19999981      -8.19999981      -8.19999981      -8.19999981      -8.19999981      -8.19999981      -8.19999981      -8.19999981      -8.19999981      -8.19999981
          -8.19999981      -8.19999981      -8.19999981      -8.19999981      -8.19999981      -8.19999981      -8.19999981      -8.19999981      -8.19999981      -8.19999981      -8.19999981      -8.19999981      -8.19999981      -8.19999981      -8.19999981      -8.19999981      -8.19999981      -8.19999981      -8.19999981      -8.19999981
          -8.19999981      -8.19999981      -8.19999981      -8.19999981      -8.19999981      -8.19999981      -8.19999981      -8.19999981      -8.19999981      -8.19999981      -8.19999981      -8.19999981      -8.19999981      -8.19999981      -8.19999981      -8.19999981      -8.19999981      -8.19999981      -8.19999981      -8.19999981
          -8.19999981      -8.19999981      -8.19999981      -8.19999981      -8.19999981      -8.19999981      -8.19999981      -8.19999981      -8.19999981      -8.19999981      -8.19999981      -8.19999981      -8.19999981      -8.19999981      -8.19999981      -8.19999981      -8.19999981      -8.19999981      -8.19999981      -8.19999981
          -8.19999981      -8.19999981      -8.19999981      -8.19999981      -8.19999981      -8.19999981      -8.19999981      -8.19999981      -8.19999981      -8.19999981      -8.19999981      -8.19999981      -8.19999981      -8.19999981      -8.19999981      -8.19999981      -8.19999981      -8.19999981      -8.19999981      -8.19999981
          -8.19999981      -8.19999981      -8.19999981      -8.19999981      -8.19999981      -8.19999981      -8.19999981      -8.19999981      -8.19999981      -8.19999981      -8.19999981      -8.19999981      -8.19999981      -8.19999981      -8.19999981      -8.19999981      -8.19999981      -8.19999981      -8.19999981      -8.19999981
          -8.19999981      -8.19999981      -8.19999981      -8.19999981      -8.19999981      -8.19999981      -8.19999981      -8.19999981      -8.19999981      -8.19999981      -8.19999981      -8.19999981      -8.19999981      -8.19999981      -8.19999981      -8.19999981      -8.19999981      -8.19999981      -8.19999981      -8.19999981
          -8.19999981      -8.19999981      -8.19999981      -8.19999981      -8.19999981      -8.19999981      -8.19999981      -8.19999981      -8.19999981      -8.19999981      -8.19999981      -8.19999981      -8.19999981      -8.19999981      -8.19999981      -8.19999981      -8.19999981      -8.19999981      -8.19999981      -8.19999981
          -8.19999981      -8.19999981      -8.19999981      -8.19999981      -8.19999981      -8.19999981      -8.19999981      -8.19999981      -8.19999981      -8.19999981      -8.19999981      -8.19999981      -8.19999981      -8.19999981      -8.19999981      -8.19999981      -8.19999981      -8.19999981      -8.19999981      -8.19999981
          -8.19999981      -8.19999981      -8.19999981      -8.19999981      -8.19999981      -8.19999981      -8.19999981      -8.19999981      -8.19999981      -8.19999981      -8.19999981      -8.19999981      -8.19999981      -8.19999981      -8.19999981      -8.19999981      -8.19999981      -8.19999981      -8.19999981      -8.19999981
          -8.19999981      -8.19999981      -8.19999981      -8.19999981      -8.19999981      -8.19999981      -8.19999981      -8.19999981      -8.19999981      -8.19999981      -8.19999981      -8.19999981      -8.19999981      -8.19999981      -8.19999981      -8.19999981      -8.19999981      -8.19999981      -8.19999981      -8.19999981
          -8.19999981      -8.19999981      -8.19999981      -8.19999981      -8.19999981      -8.19999981      -8.19999981      -8.19999981      -8.19999981      -8.19999981      -8.19999981      -8.19999981      -8.19999981      -8.19999981      -8.19999981      -8.19999981      -8.19999981      -8.19999981      -8.19999981      -8.19999981
          -8.19999981      -8.19999981      -8.19999981      -8.19999981      -8.19999981      -8.19999981      -8.19999981      -8.19999981      -8.19999981      -8.19999981      -8.19999981      -8.19999981      -8.19999981      -8.19999981      -8.19999981      -8.19999981      -8.19999981      -8.19999981      -8.19999981      -8.19999981