# File generated by Flopy version 3.9.3 on 10/06/2025 at 15:29:00.
BEGIN options
END options

BEGIN packagedata
  GWFHEAD  FILEIN  m:\GitHub\ArchPy\examples\12_modflow_energy\workspace\test.hds
  GWFBUDGET  FILEIN  m:\GitHub\ArchPy\examples\12_modflow_energy\workspace\test.cbc
END packagedata

