# File generated by Flopy version 3.9.3 on 09/16/2025 at 10:12:28.
BEGIN options
END options

BEGIN packages
  MIP6  test_prt.mip  mip
  DISV6  test_prt.disv  disv
  PRP6  test_prt.prp  prp
  OC6  test_prt.oc  oc
  FMI6  test_prt.fmi  fmi
END packages

