# File generated by Flopy version 3.9.5 on 12/11/2025 at 15:17:08.
BEGIN options
END options

BEGIN packagedata
  GWFHEAD  FILEIN  M:\GitHub\ArchPy\examples\12_modflow_energy\workspace\test.hds
  GWFBUDGET  FILEIN  M:\GitHub\ArchPy\examples\12_modflow_energy\workspace\test.cbc
END packagedata

