# File generated by Flopy version 3.9.3 on 07/23/2025 at 15:51:50.
BEGIN options
END options

BEGIN packagedata
  GWFHEAD  FILEIN  C:\Users\emmal\Documents\Github\ArchPy\examples\12_modflow_energy\workspace\test.hds
  GWFBUDGET  FILEIN  C:\Users\emmal\Documents\Github\ArchPy\examples\12_modflow_energy\workspace\test.cbc
END packagedata

