# File generated by Flopy version 3.9.5 on 12/11/2025 at 15:17:08.
BEGIN options
END options

BEGIN griddata
  porosity
    INTERNAL  FACTOR  1.0
         0.16360369       0.18209853       0.17225224       0.14281744       0.11497294       0.19447884       0.20115686       0.17466270       0.24635211       0.21962361       0.22456749       0.19879171       0.23005816       0.20972897       0.19190235       0.15210351       0.14916693       0.12579336       0.15813620       0.17861846
         0.35064981       0.22195649       0.13098863       0.20047540       0.14031114       0.17464777       0.21539506       0.16141668       0.11711168       0.22812826       0.21812175       0.18369149       0.21976528       0.22039484       0.17846922       0.16752823       0.20098917       0.19261534       0.27045039       0.18683257
         0.19635111       0.16354155       0.19622838       0.17726994       0.36731124       0.25647907       0.10265519       0.13462557       0.20086307       0.21952113       0.20911065       0.22586421       0.19662532       0.26500139       0.23308961       0.19691778       0.21811531       0.17848497       0.13429280       0.21135778
         0.23770893       0.29856443       0.30672059       0.20067043       0.18115743       0.16981319       0.14982434       0.13533493       0.24475790       0.21064115       0.11143987       0.10208070       0.25190892       0.19306034       0.15611827       0.16011335       0.16282082       0.21273462       0.22407888       0.22495614
         0.21462275       0.18397806       0.11808137       0.23611522       0.29077003       0.32035697       0.23085688       0.14800280       0.14985319       0.13629978       0.14904890       0.11308859       0.18676956       0.15692760       0.10706771       0.10482536       0.23794947       0.19417256       0.19744894       0.14706396
         0.15005252       0.18412250       0.18587097       0.23639982       0.20058318       0.20706322       0.25428353       0.27531249       0.29803945       0.28456487       0.12320226       0.08857952       0.13892997       0.18234583       0.21871818       0.19545856       0.14864705       0.09116412       0.10647287       0.13591621
         0.22470383       0.18753809       0.19771682       0.13667136       0.16458741       0.22652429       0.22953322       0.14678292       0.13848975       0.22777706       0.24778584       0.17881326       0.19051259       0.24880604       0.11010088       0.10470925       0.16176888       0.17617571       0.22527133       0.20901846
         0.15909536       0.08838617       0.06167010       0.12324942       0.22372181       0.16882717       0.23355875       0.21280409       0.17860153       0.21551698       0.15467563       0.12673801       0.13889203       0.23776063       0.21804978       0.13852967       0.11544165       0.19263338       0.15606928       0.19716689
         0.19957346       0.14342873       0.24265087       0.29941241       0.25971171       0.15467929       0.09309063       0.12129490       0.22103932       0.14217973       0.22611817       0.22607378       0.17316268       0.22525111       0.18459692       0.18796062       0.22247242       0.20519926       0.24344430       0.20992520
         0.16613135       0.20682868       0.14052000       0.15753979       0.27226368       0.21936579       0.17933458       0.18449106       0.15113404       0.17356081       0.13699750       0.20335642       0.25823112       0.16036348       0.12389470       0.22466693       0.25537684       0.21869371       0.16195256       0.15385680
         0.15563849       0.21636691       0.16092111       0.18780214       0.20093767       0.20902043       0.23289781       0.26470093       0.17180256       0.19520683       0.13808865       0.16710178       0.23686156       0.25162626       0.20720212       0.24862143       0.26014181       0.19355730       0.24267826       0.20309409
         0.16694378       0.21551698       0.20539783       0.17456981       0.15504420       0.11972290       0.15988596       0.14574991       0.20234440       0.19292391       0.10024112       0.22533799       0.13324629       0.17755883       0.24119611       0.19801339       0.20540959       0.25247811       0.12998160       0.24435085
         0.10594413       0.16266722       0.16191009       0.16952945       0.17553023       0.17029821       0.16186889       0.18515394       0.10770703       0.20702948       0.14472868       0.18258178       0.15555844       0.16702091       0.19995326       0.12430291       0.20613972       0.18459467       0.18354881       0.18528797
         0.16712825       0.11777405       0.20590793       0.14268872       0.19792088       0.24252277       0.18729937       0.27479645       0.19538631       0.25873908       0.25205566       0.24841442       0.23666328       0.23272525       0.17437208       0.13858053       0.21666358       0.16797433       0.25251317       0.17954058
         0.14805342       0.14248497       0.15178108       0.13333393       0.20591047       0.26012614       0.18493427       0.23394213       0.16120299       0.23428716       0.26534164       0.27586955       0.27652277       0.28170595       0.28779483       0.27193933       0.28189344       0.29846274       0.28135547       0.28988071
         0.29468659       0.25692063       0.27811259       0.23868783       0.16971480       0.11646681       0.21091159       0.19622693       0.19299445       0.19933997       0.18737382       0.10525749       0.17217456       0.19111144       0.10146315       0.08749258       0.22421467       0.24132850       0.21814777       0.19045211
         0.17192892       0.21231823       0.23054873       0.23503322       0.25148772       0.13971165       0.09722083       0.13856106       0.15361833       0.14114540       0.16390975       0.15616602       0.10881421       0.17893029       0.14748005       0.12681104       0.13732436       0.14656400       0.19074141       0.19460819
         0.23548778       0.16197316       0.20881756       0.20024473       0.23965634       0.23891247       0.15059381       0.30124667       0.23295925       0.25627762       0.30135613       0.11921124       0.28212445       0.11882438       0.28487479       0.30236804       0.23762795       0.32985147       0.23824146       0.23822937
         0.36028485       0.31437328       0.36872038       0.33165072       0.20843411       0.36294220       0.25179315       0.20395002       0.17680777       0.21035371       0.15454481       0.14736058       0.09911587       0.14652154       0.09925077       0.17372147       0.14836794       0.16540496       0.15263120       0.13040679
         0.10024831       0.14035154       0.14984843       0.16767738       0.24113546       0.17177337       0.24349961       0.28241523       0.28523936       0.28026166       0.28534535       0.14507131       0.22913396       0.17109590       0.23421586       0.27636648       0.27944288       0.27358100       0.27164865       0.27840044
         0.27511903       0.27268241       0.25489085       0.25583338       0.21855095       0.23611667       0.20365413       0.26603716       0.24398114       0.25339935       0.23514405       0.21955916       0.18300014       0.21267947       0.18273634       0.17015306       0.22634123       0.15181462       0.21486819       0.23591926
         0.11109451       0.16056838       0.04204797       0.10544353       0.17024931       0.06726496       0.03422467       0.18570856       0.23563165       0.20257599       0.19719567       0.20440898       0.21218450       0.20490680       0.23294243       0.25329784       0.15613592       0.18485661       0.25547308       0.25394037
         0.29268689       0.34161919       0.29896219       0.32451804       0.22700762       0.15200901       0.16021203       0.20691773       0.21021439       0.20084167       0.22064586       0.21062060       0.22809393       0.25965017       0.25803781       0.24134406       0.24594251       0.24522750       0.26955920       0.24371879
         0.23065891       0.24232553       0.23548497       0.20997074       0.18493198       0.21611394       0.17044810       0.23680334       0.18811812       0.12157464       0.11523264       0.13739046       0.17840352       0.16615959       0.19977392       0.14886745       0.08664100       0.08784736       0.14366812       0.19925498
         0.18558916       0.16712077       0.19269852       0.20793565       0.11398278       0.07171052       0.19167673       0.18682166       0.22521394       0.31862283       0.24371423       0.22649284       0.22294105       0.22234088       0.29083128       0.22433707       0.24100050       0.27648510       0.22312965       0.16788841
         0.12981154       0.12653673       0.17153111       0.16881435       0.19484548       0.19480441       0.23343107       0.22975655       0.10249926       0.11188175       0.22084543       0.24907140       0.26320564       0.28996071       0.25273103       0.20174226       0.19971886       0.15075848       0.21641423       0.18831527
         0.20032857       0.22265920       0.16604297       0.17885779       0.17197059       0.17467876       0.20957846       0.18501888       0.25382474       0.26311648       0.27797414       0.24384148       0.17960917       0.20490168       0.25479342       0.24154266       0.23529994       0.23308864       0.22098653       0.17277636
         0.15098176       0.18470854       0.11549735       0.09953989       0.12005839       0.12732899       0.12044948       0.14821504       0.19901945       0.20248001       0.18142778       0.21134595       0.23999441       0.28558981       0.29869636       0.25875742       0.28334361       0.29561973       0.18711553       0.12761524
         0.15956827       0.19887019       0.18550592       0.16576594       0.11437199       0.14194256       0.07241451       0.10257766       0.13305289       0.18837767       0.11736008       0.12649696       0.16996819       0.18681745       0.17083116       0.20963179       0.18988350       0.30546721       0.32031415       0.26246657
         0.26564948       0.29151620       0.15662976       0.04393337       0.07775699       0.17701173       0.20164090       0.24386667       0.25133096       0.17154537       0.11720699       0.10479169       0.14425694       0.20844238       0.26083674       0.16150555       0.10400635       0.12618744       0.12260123       0.16605311
         0.12152771       0.14116722       0.18188850       0.14312340       0.08863943       0.16547853       0.25994185       0.22038968       0.26444621       0.14050410       0.19119426       0.17667156       0.22655988       0.14259883       0.14209337       0.04101366       0.10511106       0.13880831       0.15791126       0.09056674
         0.16101481       0.14699266       0.20062624       0.17529740       0.15400782       0.16474382       0.21493480       0.16235888       0.12400788       0.24805009       0.27527931       0.20661512       0.27981225       0.14107769       0.13515995       0.14639967       0.18716148       0.13866961       0.13642259       0.06534388
         0.19959752       0.17471164       0.18780037       0.12597587       0.11648265       0.11265353       0.15060502       0.16985665       0.19386286       0.21156123       0.20270871       0.22118991       0.20246642       0.27115521       0.26193833       0.23342141       0.25650027       0.14241760       0.09082230       0.16997583
         0.17514457       0.18086393       0.13053336       0.11794719       0.17774578       0.16108864       0.13727568       0.11688181       0.07901585       0.15447754       0.18451790       0.12652677       0.21094985       0.18851310       0.14083710       0.17377700       0.16845428       0.22155027       0.25087285       0.25667685
         0.22366742       0.18718422       0.11836380       0.25222483       0.20437857       0.20876468       0.16085361       0.12116966       0.15725924       0.07612809       0.13798299       0.09246167       0.08388114       0.14645416       0.12193151       0.06647335       0.21271480       0.19185211       0.18265083       0.15973593
         0.14118199       0.16544716       0.18977702       0.25956929       0.21324634       0.21165460       0.24966257       0.28620724       0.16674267       0.18851234       0.13159644       0.10673455       0.10644524       0.08675393       0.17679298       0.13531467       0.11459115       0.14209492       0.15544562       0.05172576
         0.20373110       0.20087166       0.18421312       0.13239096       0.16117546       0.22458270       0.22564562       0.22606154       0.18044619       0.24023395       0.24125006       0.20009073       0.10239881       0.22415240       0.16667226       0.15381010       0.14786218       0.09714360       0.13651240       0.15703595
         0.09256947       0.14706762       0.07015125       0.07567478       0.23301057       0.19571161       0.19876633       0.15790706       0.16256906       0.21864142       0.19513757       0.29072243       0.16464435       0.21288463       0.18347292       0.16206793       0.10124196       0.23851465       0.18517597       0.16831235
         0.16961429       0.09560408       0.13231270       0.14608952       0.13836698       0.15340757       0.06205388       0.11633132       0.21796517       0.18845722       0.22715332       0.13459256       0.18052082       0.18374316       0.17839570       0.23145235       0.26132814       0.22438066       0.23508256       0.25577655
         0.18262862       0.20086304       0.22961440       0.16982515       0.20581389       0.17273935       0.15735130       0.16479054       0.17806356       0.18774620       0.23711954       0.17836606       0.17235205       0.12556464       0.06279624       0.11167226       0.17400287       0.16339009       0.17674110       0.11450435
         0.12752626       0.20705051       0.18873404       0.21411231       0.14626521       0.21033879       0.21591181       0.23889593       0.18962980       0.19458123       0.15650723       0.18725672       0.22249682       0.24725068       0.22139048       0.26346577       0.28248897       0.27037417       0.28291490       0.27933688
         0.21321531       0.26218993       0.26588637       0.24824940       0.23523787       0.24447094       0.26148671       0.25814819       0.27462561       0.22002986       0.15448790       0.21143744       0.14582672       0.24208835       0.24755475       0.18625505       0.17100060       0.22563312       0.14264352       0.17376607
         0.14200355       0.17455643       0.18713194       0.17421878       0.18472141       0.18050717       0.16960480       0.17094645       0.15112902       0.17008277       0.16441332       0.17629004       0.16209871       0.15984444       0.19711572       0.18071585       0.17806099       0.19514009       0.18000979       0.17084757
         0.22839406       0.16777568       0.23294956       0.20066427       0.15136391       0.24924282       0.13331422       0.10168338       0.06864605       0.09138499       0.15469278       0.22255072       0.17161955       0.22313514       0.27278689       0.09675514       0.25504177       0.20727757       0.26488457       0.21424558
         0.18919534       0.10915616       0.18762555       0.12019290       0.08225476       0.10732383       0.03602236       0.06414156       0.03156717       0.04356334       0.11737148       0.11669252       0.09679934       0.14274803       0.13015547       0.14722321       0.11634414       0.15216128       0.14866383       0.17404461
         0.15939047       0.14353674       0.17299718       0.16749911       0.13969716       0.12506465       0.15664040       0.17859965       0.17128910       0.23666150       0.12764896       0.05705420       0.09244915       0.17430010       0.11198975       0.14069475       0.17733347       0.18109454       0.20865712       0.15903962
         0.18787791       0.18394741       0.22398488       0.21841132       0.21803160       0.14611827       0.16455234       0.18606977       0.14751460       0.13628719       0.13691173       0.13107734       0.08295509       0.09188062       0.16091188       0.15851548       0.16536755       0.15203484       0.16732416       0.14641901
         0.18344477       0.16048487       0.18134508       0.18370290       0.21626587       0.23833131       0.18718395       0.24511209       0.20239936       0.22946630       0.23029009       0.07571545       0.12095564       0.11570287       0.15785080       0.20656726       0.20808488       0.21776083       0.18235384       0.14827989
         0.20830615       0.20732135       0.23564920       0.20624921       0.16094291       0.24474813       0.19063723       0.20343717       0.19650263       0.17403301       0.15362042       0.17005598       0.10265935       0.12318687       0.09957405       0.15588001       0.15424483       0.16091630       0.15631677       0.11611969
         0.10621363       0.11692787       0.12007278       0.04378434       0.02623212       0.07413136       0.05116718       0.04474076       0.13621122       0.06867833       0.15385641       0.08296868       0.08045971       0.11187173       0.13768511       0.13490502       0.18035671       0.21265400       0.22029693       0.18105759
         0.20567342       0.23027151       0.24090165       0.19235420       0.17803614       0.21449416       0.20226647       0.25374668       0.26682299       0.25293690       0.26944889       0.21444211       0.21125098       0.23495086       0.20013673       0.20875307       0.25264986       0.21572694       0.19266761       0.21359471
         0.15603619       0.10717425       0.03865112       0.06614453       0.13925590       0.05016218       0.06571883       0.12931586       0.17020169       0.18570301       0.20751125       0.20561132       0.21875348       0.22791552       0.26697696       0.20371311       0.11923527       0.15196929       0.12474666       0.22898020
         0.27618270       0.28368866       0.24160779       0.31759754       0.20999392       0.15285693       0.13884150       0.17835133       0.20503108       0.13019331       0.14694202       0.17739578       0.18543427       0.23240010       0.25461649       0.24297476       0.27096674       0.24387588       0.28046357       0.24496434
         0.24697742       0.27888952       0.22270228       0.22751406       0.19752249       0.18350468       0.13436232       0.20698615       0.15015718       0.12975940       0.08606212       0.12930762       0.15609255       0.12084679       0.14567107       0.12910905       0.06961113       0.10036424       0.11490553       0.14665840
         0.16513219       0.19399113       0.22244893       0.21566633       0.15049930       0.15972697       0.22680886       0.17107087       0.15339807       0.23212189       0.15844137       0.22500959       0.23058748       0.20153219       0.28057931       0.16003073       0.22986944       0.21077954       0.17531834       0.19836650
         0.13985256       0.13690797       0.14839769       0.16047627       0.16421728       0.18196073       0.23945066       0.21385281       0.13049709       0.15137993       0.23436401       0.21975625       0.18603647       0.27775465       0.20965263       0.21324050       0.21800964       0.09405336       0.17702613       0.12713382
         0.21974773       0.21493434       0.16412327       0.14751492       0.14861878       0.12352465       0.17421976       0.18454020       0.15932276       0.18919909       0.24119942       0.21170718       0.19863989       0.13541671       0.24595645       0.21496419       0.16412198       0.21639064       0.25146724       0.22318490
         0.16154213       0.17767911       0.09537599       0.11547259       0.21929318       0.12894474       0.12247287       0.12218896       0.16245433       0.12885805       0.16332139       0.21178235       0.14959527       0.17594658       0.22200158       0.16220802       0.19235517       0.21961651       0.18308871       0.15082094
         0.11884402       0.12877586       0.22756827       0.21446707       0.13003860       0.14176740       0.08601232       0.11748966       0.16241455       0.18379298       0.14886191       0.15897842       0.17572821       0.16658312       0.16204084       0.20290710       0.13422564       0.19760319       0.25284989       0.21462329
         0.16489748       0.18058294       0.13490609       0.07955555       0.11049195       0.21507095       0.28346781       0.28709327       0.24357625       0.17096227       0.16545403       0.10237785       0.14093554       0.18960011       0.22070310       0.17195654       0.10609937       0.12300295       0.17627058       0.17633873
         0.14628365       0.16470548       0.20452275       0.21284698       0.21413742       0.12716646       0.15694739       0.20949347       0.28790342       0.14027232       0.09386053       0.15765658       0.22493318       0.27339114       0.25229595       0.21700041       0.19154062       0.20238650       0.19082714       0.16328578
         0.17153932       0.17319456       0.21562280       0.23801236       0.18094976       0.19947488       0.19418188       0.23220129       0.22382648       0.17422946       0.14287199       0.15520421       0.28579102       0.13250531       0.14587617       0.19236082       0.19267463       0.24456321       0.24090463       0.24685781
         0.21462352       0.17269241       0.14848580       0.15630687       0.14314833       0.12937639       0.22270124       0.24577492       0.17817672       0.20560854       0.18549548       0.17190639       0.16409408       0.18863242       0.15934013       0.09660422       0.20844243       0.14668023       0.13890357       0.21005051
         0.19918017       0.25711884       0.24967020       0.21117212       0.19576675       0.15510311       0.13200330       0.14314042       0.12165310       0.16675797       0.19645184       0.20082822       0.17542145       0.20629433       0.19442985       0.12311601       0.10284534       0.19821446       0.20232676       0.16104965
         0.19994068       0.18957971       0.13379299       0.19233715       0.22651519       0.26611267       0.20396010       0.18889224       0.19271496       0.12414674       0.17701697       0.16765165       0.11328449       0.14035965       0.10557508       0.15087394       0.17428782       0.19313447       0.20299926       0.12836808
         0.13719106       0.19814950       0.23674152       0.23416524       0.20731071       0.20970927       0.22389846       0.19556098       0.21343856       0.20471529       0.20627870       0.23489538       0.20249260       0.13156696       0.17835551       0.15430312       0.14555985       0.11719466       0.12142256       0.15171160
         0.15920702       0.17311008       0.17509614       0.11980518       0.17522197       0.24783849       0.26503291       0.25263064       0.20261594       0.22323118       0.25014647       0.22434662       0.21841504       0.24396200       0.24892269       0.26633443       0.20309119       0.16792868       0.12727775       0.16038347
         0.16402053       0.11642156       0.08497580       0.14633038       0.17276937       0.18022388       0.16979159       0.13805952       0.19404537       0.25732977       0.23803022       0.26069790       0.17048240       0.19088479       0.26358161       0.22931337       0.21863126       0.22511000       0.20668450       0.17549804
         0.22041461       0.26360203       0.16614581       0.20350757       0.23393711       0.08727747       0.11751763       0.17693925       0.15496105       0.20883945       0.18686827       0.13798430       0.20876449       0.21528817       0.18181523       0.23146145       0.24444788       0.22852313       0.24557987       0.24471465
         0.24665290       0.24324756       0.27273798       0.24911175       0.25146621       0.24919768       0.21093211       0.18106473       0.21472189       0.23196089       0.23003528       0.19701538       0.20494317       0.21378759       0.24853257       0.20417326       0.24276312       0.22681416       0.14347548       0.13374696
         0.12708146       0.14913799       0.18084337       0.21246126       0.15216572       0.20301367       0.19240124       0.17789885       0.22457755       0.22165910       0.20542973       0.20453111       0.25229047       0.25441049       0.24990822       0.27750702       0.26761810       0.32296063       0.29156248       0.32250919
         0.25083290       0.30448416       0.32173105       0.28343524       0.29805534       0.32097339       0.26880979       0.32316399       0.26170790       0.22646092       0.20433235       0.22373222       0.21798319       0.27147755       0.20958041       0.21982693       0.16890718       0.22085620       0.21200157       0.18722719
         0.18925995       0.14771346       0.14193577       0.17304199       0.13694459       0.12641467       0.20150846       0.12814391       0.16338873       0.13079684       0.13746892       0.11555327       0.11634645       0.11146713       0.13110835       0.14526396       0.11060677       0.13071448       0.10564917       0.11228015
         0.13223280       0.12465436       0.12196637       0.10915605       0.16882990       0.20216368       0.15298668       0.15509196       0.14766516       0.16272470       0.16815231       0.19349195       0.13927870       0.14447408       0.25718247       0.20879620       0.25833693       0.25511886       0.18665389       0.23333267
         0.23476875       0.17763050       0.23035969       0.18424898       0.16540347       0.19256873       0.13338973       0.13625145       0.12011264       0.10319517       0.16337913       0.16045491       0.16302926       0.17581767       0.23096215       0.21324090       0.18258836       0.21649273       0.19886576       0.22185181
         0.21673254       0.19447189       0.21204003       0.19575794       0.21157416       0.18292480       0.18799840       0.18783245       0.18535969       0.18663622       0.16130109       0.21143285       0.20364756       0.28435807       0.23692728       0.19816611       0.15808851       0.12546111       0.15546969       0.13763936
         0.15717382       0.17650529       0.15988976       0.18745981       0.18212097       0.15834386       0.21073651       0.24307601       0.15268821       0.19776047       0.18691276       0.16680186       0.20270582       0.18019543       0.14659807       0.10185040       0.11099920       0.11549570       0.13553787       0.13796277
         0.12834367       0.09290125       0.10440989       0.11808065       0.10412195       0.11833872       0.10871650       0.11566070       0.10936537       0.10556623       0.09785304       0.14645231       0.15043800       0.13500452       0.13137151       0.13916404       0.15032564       0.14159016       0.17447014       0.10870866
         0.11920746       0.10634051       0.13633037       0.13099508       0.16417897       0.14399305       0.16486825       0.16016293       0.19418855       0.17735737       0.18031766       0.20709961       0.18309083       0.18760372       0.18667799       0.18676381       0.19069771       0.20885670       0.21017583       0.18032523
         0.18231588       0.19177586       0.18324677       0.12875873       0.10989680       0.14085889       0.13016088       0.15536468       0.19955166       0.15094358       0.18977819       0.15789930       0.15355763       0.18079406       0.16616507       0.16708552       0.19091324       0.18227589       0.18870663       0.21645902
         0.22380757       0.21863019       0.21965192       0.21527658       0.20729552       0.20699754       0.21515340       0.20665551       0.21093676       0.20697106       0.21759416       0.19924197       0.22308408       0.21583652       0.21737120       0.20491429       0.18100973       0.19862961       0.18185106       0.16053322
         0.17927775       0.15333734       0.22633884       0.20262615       0.25069802       0.19863525       0.17077013       0.13111507       0.14138825       0.15809494       0.10041087       0.12069426       0.15523085       0.10811251       0.18428506       0.15756636       0.09225239       0.12465747       0.18685600       0.19228517
         0.17595458       0.11774970       0.19142655       0.15773236       0.19848562       0.22733518       0.21868516       0.20788851       0.21934179       0.20317054       0.17903748       0.21905359       0.19531103       0.16420072       0.16524286       0.15453584       0.16339998       0.19402419       0.15070345       0.18416540
         0.20293971       0.17747447       0.19782176       0.20628797       0.20908726       0.21764663       0.21765992       0.17844273       0.22882621       0.19423044       0.15246283       0.21134797       0.17030695       0.17805531       0.19834825       0.25096446       0.25371860       0.20268272       0.12516975       0.08205278
         0.14197558       0.12784826       0.11212654       0.10583188       0.11493248       0.17602968       0.13480543       0.10683454       0.13557285       0.19230969       0.16911595       0.19426137       0.21490685       0.18519339       0.17378027       0.18040642       0.19043973       0.19237531       0.18047415       0.23602252
         0.29376855       0.23213520       0.13673368       0.12294380       0.14163044       0.16809276       0.16706477       0.14355252       0.17294026       0.21062803       0.16145155       0.13888955       0.13843853       0.18968805       0.16112339       0.18903855       0.16100664       0.09862612       0.13245146       0.15086083
         0.20594746       0.22839135       0.18043546       0.25951562       0.23680063       0.18284659       0.15251815       0.16422316       0.14715092       0.17017322       0.18695378       0.17008862       0.17412951       0.19803978       0.22881730       0.17765740       0.14294325       0.16405949       0.21342180       0.19432518