# File generated by Flopy version 3.9.3 on 07/23/2025 at 15:51:49.
BEGIN options
  TIME_UNITS  days
END options

BEGIN dimensions
  NPER  1
END dimensions

BEGIN perioddata
       1.00000000  1       1.00000000
END perioddata

