# File generated by Flopy version 3.9.5 on 11/03/2025 at 10:10:25.
BEGIN options
END options

BEGIN packagedata
  GWFHEAD  FILEIN  M:\GitHub\ArchPy\examples\12_modflow_energy\workspace\test.hds
  GWFBUDGET  FILEIN  M:\GitHub\ArchPy\examples\12_modflow_energy\workspace\test.cbc
END packagedata

