# File generated by Flopy version 3.9.1 on 06/09/2025 at 12:54:51.
BEGIN options
END options

BEGIN packages
  MIP6  test_prt.mip  mip
  DISV6  test_prt.disv  disv
  PRP6  test_prt.prp  prp
  OC6  test_prt.oc  oc
  FMI6  test_prt.fmi  fmi
END packages

