# File generated by Flopy version 3.9.5 on 12/11/2025 at 15:17:08.
BEGIN options
END options

BEGIN packages
  MIP6  test_prt.mip  mip
  DISV6  test_prt.disv  disv
  PRP6  test_prt.prp  prp
  OC6  test_prt.oc  oc
  FMI6  test_prt.fmi  fmi
END packages

