# File generated by Flopy version 3.9.1 on 06/09/2025 at 12:54:51.
BEGIN options
END options

BEGIN packagedata
  GWFHEAD  FILEIN  c:\Users\emmal\Documents\Github\ArchPy\examples\12_modflow_energy\workspace\test.hds
  GWFBUDGET  FILEIN  c:\Users\emmal\Documents\Github\ArchPy\examples\12_modflow_energy\workspace\test.cbc
END packagedata

