# File generated by Flopy version 3.9.2 on 04/16/2025 at 15:18:04.
BEGIN options
  COMPLEXITY  simple
END options

