# File generated by Flopy version 3.9.1 on 01/23/2025 at 16:56:18.
BEGIN options
  COMPLEXITY  moderate
END options

