# File generated by Flopy version 3.9.3 on 10/06/2025 at 13:43:16.
BEGIN options
  COMPLEXITY  moderate
END options

