# File generated by Flopy version 3.9.2 on 03/11/2025 at 14:16:45.
BEGIN options
  COMPLEXITY  moderate
END options

