# File generated by Flopy version 3.9.1 on 02/28/2025 at 08:01:47.
BEGIN options
  COMPLEXITY  moderate
END options

BEGIN linear
  INNER_DVCLOSE  1.00000000E-04
END linear

