# File generated by Flopy version 3.9.1 on 01/21/2025 at 11:18:43.
BEGIN options
  COMPLEXITY  moderate
END options

