# File generated by Flopy version 3.9.2 on 02/26/2025 at 15:28:45.
BEGIN options
  COMPLEXITY  moderate
END options

