# File generated by Flopy version 3.9.2 on 03/06/2025 at 21:17:13.
BEGIN options
  COMPLEXITY  moderate
END options

