# File generated by Flopy version 3.9.1 on 01/16/2025 at 11:58:50.
BEGIN options
  COMPLEXITY  moderate
END options

