# # MPBAS package for MODPATH 7 generated by Flopy 3.9.1
0                   # DEFAULTIFACECOUNT
CONSTANT    3.000000E-01                           #porosity layer 1              
CONSTANT    3.000000E-01                           #porosity layer 2              
CONSTANT    3.000000E-01                           #porosity layer 3              
CONSTANT    3.000000E-01                           #porosity layer 4              
CONSTANT    3.000000E-01                           #porosity layer 5              
CONSTANT    3.000000E-01                           #porosity layer 6              
CONSTANT    3.000000E-01                           #porosity layer 7              
CONSTANT    3.000000E-01                           #porosity layer 8              
CONSTANT    3.000000E-01                           #porosity layer 9              
CONSTANT    3.000000E-01                           #porosity layer 10             
CONSTANT    3.000000E-01                           #porosity layer 11             
CONSTANT    3.000000E-01                           #porosity layer 12             
CONSTANT    3.000000E-01                           #porosity layer 13             
CONSTANT    3.000000E-01                           #porosity layer 14             
CONSTANT    3.000000E-01                           #porosity layer 15             
CONSTANT    3.000000E-01                           #porosity layer 16             
CONSTANT    3.000000E-01                           #porosity layer 17             
CONSTANT    3.000000E-01                           #porosity layer 18             
CONSTANT    3.000000E-01                           #porosity layer 19             
CONSTANT    3.000000E-01                           #porosity layer 20             
CONSTANT    3.000000E-01                           #porosity layer 21             
CONSTANT    3.000000E-01                           #porosity layer 22             
CONSTANT    3.000000E-01                           #porosity layer 23             
CONSTANT    3.000000E-01                           #porosity layer 24             
CONSTANT    3.000000E-01                           #porosity layer 25             
CONSTANT    3.000000E-01                           #porosity layer 26             
CONSTANT    3.000000E-01                           #porosity layer 27             
CONSTANT    3.000000E-01                           #porosity layer 28             
CONSTANT    3.000000E-01                           #porosity layer 29             
CONSTANT    3.000000E-01                           #porosity layer 30             
CONSTANT    3.000000E-01                           #porosity layer 31             
CONSTANT    3.000000E-01                           #porosity layer 32             
CONSTANT    3.000000E-01                           #porosity layer 33             
CONSTANT    3.000000E-01                           #porosity layer 34             
CONSTANT    3.000000E-01                           #porosity layer 35             
