# File generated by Flopy version 3.9.5 on 12/11/2025 at 15:16:22.
BEGIN options
  BUDGET  FILEOUT  test.cbc
  HEAD  FILEOUT  test.hds
END options

BEGIN period  1
  SAVE  HEAD  LAST
  SAVE  BUDGET  LAST
  PRINT  BUDGET  ALL
END period  1

