# File generated by Flopy version 3.9.5 on 12/11/2025 at 15:16:22.
BEGIN options
  SAVE_FLOWS
  SAVE_SPECIFIC_DISCHARGE
  SAVE_SATURATION
END options

BEGIN griddata
  icelltype
    CONSTANT  0
  k  LAYERED
    INTERNAL  FACTOR  1.0
      5.81987385E-05  7.66674090E-05  2.03458502E-07  4.21215822E-08  4.57767932E-08  4.14418634E-05  8.80306822E-05  6.49988090E-05  1.77194660E-04  1.52893561E-04  5.78139400E-06  3.44279908E-06  3.34312483E-06  5.49887504E-06  6.52138694E-05  1.88189525E-04  5.66989696E-05  2.01997146E-06  3.95031040E-06  3.62945391E-05
      8.87931921E-04  1.27374472E-04  5.50157495E-05  1.39634956E-04  1.61751398E-07  4.04977383E-05  1.49143219E-07  4.96523849E-08  3.85068181E-08  1.72405348E-05  4.87915950E-05  6.42575773E-05  1.27837395E-04  1.42039820E-04  4.83353543E-05  4.96503147E-05  5.64593303E-05  7.70863298E-05  3.28392683E-04  1.19135384E-04
      4.81559926E-05  2.46926534E-09  3.95201602E-09  1.48949839E-08       0.00128012  1.54674460E-04  3.15537810E-05  4.47088271E-05  1.12012873E-07  1.31933713E-07  1.07802843E-07  1.15935019E-07  1.02229836E-07  3.05537383E-07  1.16550745E-05  3.59447742E-05  1.03999909E-04  5.79344738E-05  3.35111189E-05  9.99074061E-05
      1.67164664E-04  4.47887020E-04  4.46262651E-04  1.05014285E-04  6.30163995E-05  3.31720053E-08  2.81979129E-09  3.34376104E-09  2.23267391E-04  1.15432269E-04  3.21012766E-05  2.47292812E-05  4.67326618E-07  9.82204015E-06  7.96291645E-08  5.30791755E-08  6.61176636E-08  1.10159037E-07  1.52656050E-06  7.99866294E-06
      2.12369842E-05  3.85856344E-07  2.98999143E-08  2.61879276E-05  2.90610068E-04  6.95504840E-04  1.71014738E-04  4.81791021E-05  4.76668036E-05  1.32023487E-05  1.24006584E-05  2.72687985E-05  8.32124149E-05  5.03957491E-05  2.77294359E-05  2.49889423E-05  3.76758864E-05  8.26069227E-05  5.51134090E-07  4.52082236E-08
      4.83339198E-08  8.64170706E-08  6.73951782E-06  6.48884923E-06  3.69684129E-06  3.81151634E-07  2.11100919E-07  1.11832201E-06  2.88073643E-04  4.20343436E-04  6.80695466E-05  2.93794652E-05  3.47228476E-05  8.53396410E-05  1.17322082E-04  1.00443948E-04  4.92056432E-05  2.25153414E-05  2.77016564E-05  3.74879791E-05
      1.16871563E-04  8.84828532E-05  5.52941470E-05  4.96288045E-08  7.42247118E-08  1.29536671E-05  2.30269913E-05  9.50776957E-06  8.69450324E-06  5.44928906E-07  2.20686929E-07  7.10202773E-08  4.08822896E-05  2.71739231E-04  4.82093453E-05  3.19274555E-05  4.88399408E-05  5.71479280E-05  1.42577630E-04  1.95022809E-04
      7.22548170E-05  2.57615226E-05  1.71393562E-05  3.22061112E-05  1.38776344E-04  6.86627850E-05  1.67558625E-04  3.33286610E-05  1.42672606E-05  6.49806613E-05  2.00079723E-05  1.95697274E-05  2.21726470E-05  5.47668224E-07  1.29555898E-08  2.45841714E-09  3.28581254E-08  1.16989391E-04  6.62124249E-05  9.47905224E-05
      5.64145536E-05  2.94475050E-05  1.68789715E-04  5.80528877E-04  3.01982154E-04  6.40582142E-05  2.73827659E-05  3.23996110E-05  1.59232504E-04  4.42564460E-05  1.45849063E-04  1.28079468E-04  5.75717579E-05  1.33943825E-04  4.53293496E-05  2.82385232E-05  1.07710482E-04  3.32183004E-05  1.66707460E-04  6.36222179E-05
      1.56645511E-05  2.89133884E-07  3.16901535E-05  9.14275145E-06  3.01928037E-07  1.56882300E-08  5.24671449E-08  3.79976973E-08  4.53135443E-09  8.51430569E-08  2.82619402E-05  9.14621550E-05  2.06324087E-04  3.68454577E-05  2.62816614E-05  1.22053816E-04  2.73337898E-04  1.82207706E-04  7.09583872E-05  5.30466309E-05
      5.09730535E-05  1.39043174E-04  4.71193441E-05  8.45718617E-05  1.11857981E-04  1.00803974E-04  8.49266549E-05  1.09101569E-05  1.39093402E-05  3.82479414E-05  4.16470770E-08  8.22403036E-06  2.04760288E-04  2.38554918E-04  1.33431899E-04  1.60666297E-04  2.11505317E-04  6.42859623E-05  1.84664490E-04  7.43925638E-05
      2.98961013E-05  1.60639302E-04  7.17366028E-05  7.37504339E-05  5.59581016E-05  4.71349930E-05  7.29479099E-05  6.76877144E-05  1.86008293E-04  2.16717617E-04  5.26578176E-05  3.25036769E-04  7.73897910E-05  1.16820640E-04  4.52393143E-04  2.51099104E-04  5.57473084E-04  4.66691308E-04  1.05273085E-04  5.83929240E-04
      1.24468292E-04  3.39089030E-08  4.56875323E-08  2.12193882E-05  6.84494479E-08  2.23251386E-08  7.93351171E-05  1.97024517E-07  8.36033886E-05  1.96844350E-07  4.71072933E-08  8.22083776E-08  5.50467565E-08  8.13799044E-08  5.35950594E-09  1.19785768E-09  4.21780765E-09  3.72890788E-09  2.09893905E-08  2.60092248E-08
      1.26520654E-08  1.05829406E-09  5.57858412E-08  2.35442547E-08  1.21964466E-08  3.52974115E-07  3.54145876E-09  4.00506647E-07  9.13221447E-08  3.91177843E-07  3.08157105E-07  3.39989308E-07  3.14281882E-07  2.46394588E-07  1.12571558E-05  4.02837599E-05  3.75384975E-06  1.43942922E-05  4.81083053E-07  9.43731586E-06
      2.88986544E-05  3.88999362E-05  1.75255951E-05  3.45405348E-05  9.88443858E-05  2.06229520E-04  8.31579101E-05  1.49053846E-04  6.20627865E-05  1.52368329E-04  2.29630888E-04  2.60669033E-04  2.67841402E-04  2.84805392E-04  3.01019358E-04  2.35899801E-04  2.74717473E-04  3.46513827E-04  2.80489533E-04  3.31639790E-04
      3.51787061E-04  2.35378542E-04  3.00630812E-04  1.96272568E-04  3.91837317E-05  1.10889928E-05  9.50534977E-05  3.97881424E-05  8.66358416E-05  5.02920920E-05  1.35564254E-05  2.03915466E-05  6.27471333E-05  7.75612420E-05  2.78159549E-05  2.55615259E-05  1.25524087E-04  1.33281780E-04  1.21895401E-04  4.56386009E-05
      3.09960131E-05  9.83005288E-05  5.44874362E-05  9.90760786E-07  2.05422849E-07  3.62785436E-08  3.37670928E-08  2.83391789E-05  3.80626437E-08  2.07655974E-06  3.24985195E-04  2.96865005E-04  9.98024790E-05  4.77269604E-04  6.03393491E-05  2.71401766E-08  5.41511547E-08  1.21586364E-05  8.76401532E-08  9.12492883E-05
      4.83672404E-07  1.78872478E-08  8.58281587E-08  3.98097898E-08  1.90441208E-07  2.03151853E-07  9.64135160E-08  6.64664166E-07  3.43291457E-07  2.50278226E-07  8.30435959E-07  2.20308527E-09  5.58679981E-07  1.43610258E-09  7.22474965E-07  6.53245946E-07  2.70842074E-07  9.41950429E-07  2.73622805E-07  2.35708379E-07
      1.56155307E-06  9.04418720E-07  1.65006725E-06  9.60685636E-07  2.04729168E-07  1.37080482E-06  2.87501962E-07  3.28004261E-07  4.26829744E-06  1.71644384E-07  6.72672008E-07  1.31564603E-05  1.91017416E-05  3.91281086E-06  1.19950586E-05  1.11044580E-07  7.05363827E-08  9.42032277E-08  3.35165378E-07  4.71957408E-06
      1.52455602E-05  7.81094356E-06  2.79676170E-05  6.65522049E-05  1.74687459E-04  7.29440332E-05  1.90837043E-04  3.01480339E-04  3.07235691E-04  3.01339220E-04  3.07892746E-04  4.72797173E-05  1.41278247E-04  7.15161230E-05  1.50633179E-04  2.87242954E-04  2.88345722E-04  2.78791907E-04  2.69629777E-04  2.69796499E-04
      2.72806087E-04  2.55657652E-04  2.15570372E-04  2.25332689E-04  1.52310770E-04  1.76533806E-04  1.24493739E-04  2.26177261E-04  1.69698522E-04  1.86786561E-04  1.46882099E-04  1.33090042E-04  8.33339780E-05  1.24534344E-04  8.33829534E-05  8.41015774E-05  3.94176338E-05  7.08489910E-05  3.19409576E-05  2.06605735E-05
      4.02920297E-05  1.81851186E-05  9.02010280E-06  2.11103435E-05  5.90906263E-05  1.42848805E-05  9.20241622E-06  5.07455774E-05  1.47250052E-04  5.85471797E-05  1.95019203E-05  6.44939995E-06  3.07406559E-05  8.40432300E-06  5.49749506E-06  5.10042315E-07  5.07975398E-08  1.90879879E-06  4.11176089E-04  8.69269608E-07
      4.55551423E-07  1.14892569E-06  4.58443483E-07  1.22726708E-06  6.33745399E-06  2.39390577E-06  2.68795399E-05  3.13676306E-05  8.23701594E-05  1.12774226E-04  1.41211780E-04  1.13423232E-04  1.40825837E-04  2.12421031E-04  2.17276606E-04  1.45061434E-04  1.72732857E-04  9.48406714E-05  1.10818218E-04  1.71721398E-04
      1.44210286E-04  1.70626067E-04  1.59161806E-04  1.19972401E-04  7.86439739E-05  1.27556543E-04  8.58720132E-05  1.51188915E-04  8.54418023E-05  5.44366201E-05  3.00754281E-05  7.96531131E-05  4.31260526E-05  5.93070776E-05  1.00271220E-04  4.26017847E-05  1.86075042E-05  1.33664541E-05  3.06452183E-05  9.53069006E-05
      2.71796078E-05  3.69250348E-05  4.23548305E-05  6.43215047E-05  1.13805050E-05  1.14095963E-05  1.91057411E-05  1.88650255E-05  1.18064992E-04  6.51140221E-04  1.08153318E-04  6.76779118E-06  2.84901515E-05  9.94621529E-05  8.93066070E-05  1.49572183E-04  1.85457217E-04  2.85772367E-04  1.24084379E-04  6.07615714E-05
      3.55678116E-05  2.20272689E-05  5.22084977E-05  6.57976500E-05  7.32899542E-05  1.05777475E-04  1.69733005E-04  1.20715995E-04  2.48467017E-05  3.44028583E-05  1.60012252E-04  2.08256383E-04  3.47650895E-04  5.23680104E-04  2.00167459E-04  3.22891307E-05  5.78587065E-05  5.26493089E-05  4.38333678E-05  8.47076508E-05
      1.12218839E-04  1.51237467E-04  6.09101266E-05  6.96809001E-05  7.44464994E-05  4.23401966E-05  9.03041296E-05  9.99945200E-05  2.15182025E-04  2.95469413E-04  3.46365142E-04  1.89324898E-04  8.45220650E-05  1.57140884E-04  2.48075064E-04  2.09414024E-04  2.61487969E-04  2.68201496E-04  1.60329674E-04  4.20824076E-05
      2.18663651E-05  1.47958936E-05  7.25707360E-06  1.23917433E-05  1.21040006E-05  2.04838205E-05  3.25763085E-05  4.44323093E-05  9.78589070E-05  7.20403106E-05  8.21891741E-05  1.53996044E-04  1.96347821E-04  4.04039046E-04  4.78939141E-04  2.46627090E-04  3.38581913E-04  3.99366098E-04  9.66153176E-05  4.82807708E-05
      7.78800466E-05  1.42856694E-04  9.21023446E-05  2.57352740E-05  4.85472215E-06  3.78942669E-09  6.68029369E-10  1.15494872E-08  9.35895178E-07  1.15103617E-06  1.57311110E-05  4.33894658E-06  1.70064709E-05  6.02122915E-05  7.21548619E-05  1.33787035E-04  8.08704918E-05  4.61551092E-04  6.41487597E-04  1.80925453E-04
      2.68971067E-04  4.04754245E-04  6.34794252E-05  1.39068849E-05  1.84096505E-05  7.85844560E-05  2.82438368E-05  5.45680748E-06  6.01771828E-08  2.83436813E-09  2.63037286E-09  2.15073942E-09  1.45094669E-06  2.36338528E-07  8.44651125E-07  3.68473999E-09  1.05981416E-09  8.04706824E-09  3.22511595E-05  6.77180652E-05
    INTERNAL  FACTOR  1.0
      3.13775729E-04  3.54935248E-04  2.45856510E-05  5.02599397E-05  1.54638382E-04  8.62378898E-07  5.83285289E-07  8.36551630E-06  1.75921796E-05  1.08514628E-07  5.12464624E-07  5.11489129E-06       0.01140334       0.00929343       0.00323057       0.00364883       0.00222479       0.00297801       0.00100297  2.12367787E-05
      2.43088063E-05  7.26083922E-06  6.44329082E-05  3.37812373E-04  1.38192088E-04  9.55630458E-05  1.21830431E-07  6.76400776E-08  1.60782720E-04  3.72264630E-06  6.84101881E-07  4.27280387E-06  1.40164398E-05  1.53957356E-07  5.88405304E-07  9.44676022E-04       0.00104374       0.00317702       0.00698329       0.00824716
           0.00143310       0.00115186  3.76709734E-06  1.24584340E-05  6.63245112E-07  1.10614480E-05  5.38505322E-05  9.08852745E-04  3.16421519E-05  6.30075333E-05  6.57374182E-06  5.43241904E-06  3.62470958E-05  8.41633237E-07  8.61295406E-07  1.33718173E-06  1.25353581E-06  6.29784224E-08  8.66336248E-07  1.70646854E-05
      3.77590144E-04       0.00525406       0.00954255       0.00274220  5.44825188E-04  4.02195156E-05  4.25252299E-04  7.18872537E-04  1.02305347E-07  1.00361921E-05  3.38235746E-06       0.00112037  6.16153742E-05  5.66528752E-05  6.61905231E-06  2.44665256E-06  1.37314607E-05  5.27370030E-06  2.47128824E-05  4.75152678E-06
      1.82209234E-07  8.05157405E-08  3.59990859E-08  9.44019347E-06  1.18396537E-04       0.00653495       0.00240345       0.00136185  4.88343922E-05  1.00210022E-04  9.69256484E-04  2.16131609E-04  7.04162156E-07  4.58480103E-06  2.56549801E-06  2.64565615E-07  4.79231806E-05  3.64051463E-05  2.70167663E-05  1.09250451E-05
      2.02668824E-05  5.15604821E-05  5.36154882E-05  6.01619402E-05  1.10287739E-07  1.22986944E-07  1.99359932E-07  2.35816845E-05  4.75418311E-04       0.00137688       0.00159176       0.00239465  3.11675744E-04  1.99065863E-04  1.20355076E-04  2.25191951E-06  2.40465042E-04  1.73419176E-06  4.36785413E-06  6.26318989E-04
      4.13215955E-05  4.54592746E-05  1.88191432E-05  9.93711419E-06  2.63814046E-05  2.03400509E-04  1.56458504E-04  4.44954677E-07  7.23778890E-08  1.51964928E-07  6.02878725E-06  1.63099218E-04  2.33882341E-04       0.00128279       0.00522768       0.00390285  4.30619557E-04       0.00127961  1.93642055E-05  2.53321777E-04
           0.00303409  1.69151208E-07  3.34067145E-06       0.00188786  6.30777103E-05  4.98406074E-05  3.30747858E-05  9.11470378E-06  1.75319906E-05  8.80056792E-05  1.24986990E-04  2.14761355E-05  1.18636223E-05  1.90274537E-05  4.36569530E-05  7.79292500E-04  1.71205686E-04       0.00106797       0.00231135       0.00109404
           0.00194889       0.00553312  9.92162362E-04       0.00163711       0.00168116  1.11511791E-04       0.00108934       0.00254907  6.79227292E-05  5.36227133E-05  4.32984378E-05  7.62549508E-06  1.50125432E-05  3.17518726E-05  5.32342077E-05  9.47381739E-05  1.05714306E-04  1.24134505E-04  1.71658383E-04  2.36936546E-04
      1.93655566E-04  5.35889070E-04  3.76496346E-04  6.60678367E-04  6.82506178E-05       0.00128897  2.42196854E-04  2.04399454E-04  5.37120375E-04  6.57299481E-07       0.00315167       0.00122249  6.83496483E-04       0.00232739       0.00516903       0.00252260       0.00593340       0.00276464  2.51689469E-04  8.81222368E-06
      2.59075682E-05  3.40107226E-05  2.51683018E-05  2.16613974E-05  9.30535102E-06  3.54939490E-05  3.70780879E-05  3.94440964E-05  9.18318222E-05  9.49177007E-05  5.56325565E-05  7.83549308E-05  1.74766279E-04  2.27981323E-04  1.52092231E-04  2.44900152E-04  3.36167305E-04  4.40251904E-04  3.65582765E-04  4.79298689E-04
      1.58521699E-04  3.40382697E-04  4.24168502E-04  2.60265455E-04  2.91576202E-04  5.84317282E-04  5.30547761E-04  5.22370757E-04  4.27108663E-04  4.95467352E-04  4.60755467E-04  4.95622784E-04  3.73549635E-04  3.64233257E-04  3.32508835E-04  1.96511613E-04  1.66919148E-04  4.73653051E-04  3.94875770E-04  2.39198527E-04
      4.62846507E-04  3.01821217E-04  3.41584635E-04  2.68646509E-04  2.12841199E-04  3.23810390E-05  3.33148296E-04  2.74950090E-05  5.18396742E-04  3.25432711E-05  9.27873442E-05  1.33177477E-05  1.92857264E-05  1.47990089E-05  8.44326704E-06  4.36901241E-07  7.19798492E-06  4.52718906E-06  6.01422309E-06  2.80486673E-06
      4.62291096E-07  4.26076284E-07  8.55586298E-07  5.51168447E-07  4.93848809E-07  1.74464121E-06  5.16270718E-07  5.79396662E-07  4.61380062E-07  7.30271184E-07  1.42097124E-06       0.00423107  2.14395580E-04       0.00130405       0.01195946       0.00204909       0.00808859       0.01064590       0.00399417       0.00786601
           0.00696264       0.00263464       0.00474487       0.00136132  5.92373375E-04  7.83239853E-04  4.38803709E-04  5.61052826E-06  5.92411627E-06  4.76884887E-06  8.02965913E-06  1.39331182E-05  1.00415280E-05  2.56541363E-05  5.00522083E-04  8.72624362E-06  1.17971471E-04  6.77971576E-05  1.35867030E-04  1.61803632E-04
      4.48105893E-05  1.29960693E-04  1.08077180E-04  9.85354264E-05  7.80941696E-04  6.54234829E-04  1.94351435E-04  2.59191467E-04  1.41986222E-04  3.35532049E-04  2.44681860E-04       0.00173771       0.00232505       0.00900052       0.00392048  7.33607836E-04  2.28827779E-05  5.02968539E-05  1.23319021E-05  3.27863887E-06
      4.15001883E-06  1.55282695E-06  1.52035355E-05  4.00957440E-05  4.82316182E-05  3.73551476E-05  8.97557395E-05  1.47485534E-04  3.93202538E-05  6.62714572E-05  1.49399171E-04  1.04681271E-04  3.48918864E-04  5.39911329E-05  1.81045230E-05  8.43128644E-06  1.09166128E-05  2.91115695E-04  5.99708858E-06  2.35723813E-05
      5.49040620E-04  4.48283349E-06  5.11322459E-06  4.38383369E-06  4.93578719E-06  1.07321735E-06  5.40429411E-07  1.09684032E-06  6.11553668E-07  1.92160104E-06  6.43922205E-07  4.45744717E-07  6.24865444E-07  4.71908088E-07  6.55489755E-07  4.73725940E-04       0.00142690  4.98422317E-05  3.60142680E-04  6.21348116E-07
      8.94624721E-07  7.97400588E-07  1.13355608E-06  8.07575397E-05  1.10659142E-04  3.47887465E-05  5.55806320E-05  8.13704062E-04  8.12422063E-04  3.49118160E-04  3.28844249E-06       0.00176507  7.07333159E-04  2.42148768E-04  1.64153539E-05  6.24433126E-05  2.43835909E-06  3.33354717E-06  2.85413864E-06  2.31668642E-06
      3.03251512E-06  3.29364249E-06  2.62916131E-06  3.90659079E-06  3.95561771E-06  1.92649475E-06  4.96160416E-06  6.96963504E-06  2.62873351E-05  7.07329241E-06  4.75052231E-05  1.45416785E-06  3.20577093E-05  3.22085850E-06  5.45017027E-05  1.93536203E-05  5.42575483E-05  5.10918867E-05  4.54394452E-05  1.01923861E-04
      1.34253522E-04  1.10239152E-04  9.77518180E-05  1.32020546E-04  1.66097155E-04  1.43681123E-04  4.49839485E-04  1.32503935E-04  2.13812523E-04  1.86845825E-04  6.49302915E-04  3.49904756E-04  7.04967400E-04  8.43843538E-04  8.40884962E-04  2.73805964E-04  2.76258758E-04  4.19960207E-04  2.46716073E-04  1.70355823E-04
      3.35231956E-04  3.28446431E-04       0.00238384       0.00143172       0.00486398       0.00193983  8.79104144E-04  8.59790286E-05  7.11198480E-04  1.96485673E-05  9.00696481E-06  2.41413260E-06  8.12056695E-07  6.39140291E-06  3.19549985E-05  3.21908457E-05  1.35054447E-05  1.26788183E-05  4.19566459E-05  9.97458611E-06
      5.58377304E-07  8.45991032E-07  5.79497552E-05  6.32050256E-07  1.76476031E-06  6.08681980E-06  6.42740538E-06  1.53107398E-05  9.50217600E-06  7.00867107E-06  7.98490123E-06  2.60760609E-05  3.09316072E-05  5.05082709E-05  6.31672703E-05  5.79754075E-05  1.00493558E-04  1.80915244E-05  9.15926650E-05  2.14960905E-04
           0.00116140  3.38668831E-04       0.00157123       0.00148885       0.00177008       0.00257417       0.00338082       0.00105789       0.00384133       0.00163682  5.64884066E-04       0.00325459  6.04446463E-04  1.02049666E-04  6.52654563E-04       0.00514687       0.00594621       0.00247918  1.32229988E-04  4.48105307E-04
      5.03438224E-06  2.99397445E-05  8.34318536E-07  2.29855603E-06  8.95922753E-06  2.18534539E-05  1.88257480E-05  6.49218603E-06  3.35311981E-06  3.45748224E-05  9.58469639E-07  3.05244488E-07  3.84873189E-07  4.36195672E-06  1.74162544E-05       0.00146629  1.85881062E-04  1.84403197E-04  7.30553549E-04       0.00467582
           0.01084960       0.00431123  4.19028667E-04       0.00131395  1.63821699E-06  3.51215213E-05  1.89905198E-05  1.45891830E-05  3.28956940E-05  2.49547868E-05  1.77864935E-05  1.86891094E-05  4.03209322E-05  7.84736662E-05  2.77125327E-06  6.14234331E-07  1.81346258E-07  1.13972900E-07  1.87911037E-04  6.86560288E-04
      9.86741129E-04  7.42793731E-04       0.00169504       0.00504076       0.00412764       0.00370366       0.00153372       0.00322726  4.90540684E-06  4.54575974E-05  5.59955616E-05  4.91613192E-05  5.91515639E-05  4.07930329E-05  3.68625651E-05  3.63957711E-05  6.37218126E-05  5.09754456E-05  1.23736862E-05  2.48614488E-06
      3.09959728E-08  5.39242682E-09  3.21258185E-06  1.64867105E-06  2.65587448E-06  7.29620126E-04       0.00171714       0.00251332       0.00214330       0.00104792       0.00185155       0.00366080  3.07345177E-06  5.00704564E-05  1.52750678E-04  5.30717936E-05  4.73772569E-05  7.81855089E-05  1.91876246E-05  8.92507174E-06
      1.84048164E-05  1.90466394E-05  2.44993280E-06  9.01223384E-05  2.57555632E-06  2.38275784E-06  3.99128728E-07  4.61274572E-06  2.42359496E-04  5.22879331E-04  6.33781054E-04  3.19427657E-04  1.99551678E-04  7.33345843E-04  5.48760226E-04       0.00193548  1.84075171E-07  1.10498361E-05       0.00214299  3.53987846E-04
      1.23885026E-05  3.83411898E-05  1.44634054E-05  3.08655811E-06  4.21726491E-06  9.37576801E-06  6.40184222E-07  6.55547238E-04  1.24210085E-06  8.71440632E-07  1.37225502E-06  9.67966683E-07  9.69613962E-04  3.13830544E-04  5.21755869E-04  5.18630559E-05  1.77988015E-04  2.17186060E-04  7.65219894E-04       0.00496051
    INTERNAL  FACTOR  1.0
      3.95527237E-05  6.40609206E-07  8.56064014E-07  7.15992682E-04  1.01260666E-04  2.78807495E-05  1.01566824E-04  4.36433301E-05  3.44551583E-07  3.28392331E-05       0.00702909       0.01295693       0.00843442       0.00875397       0.00261201       0.00359965       0.00151408       0.00114260  7.98755243E-04  4.94591007E-04
      1.08440571E-06  1.15574175E-06  4.31313625E-06       0.00109838  9.53005103E-07  6.33749261E-07  4.56312669E-06  1.68126512E-04  2.78882083E-05  2.43331679E-05  5.10328366E-05  9.58783752E-04       0.00201601       0.00128978       0.01110767       0.00192624  4.65917449E-05       0.00259110       0.00768841       0.01068404
           0.00239982  3.69648660E-04  3.83773957E-06  5.08597346E-07  4.38875526E-07  9.79794050E-07  2.42149795E-04       0.00102793  6.17094201E-07  3.51693423E-06  2.59838369E-06  1.24877282E-05  4.16999842E-07  1.46870529E-05  2.29654480E-05  1.89946770E-05       0.00487622  2.62503876E-07  7.79696323E-04  4.06899938E-04
      4.39264756E-05       0.00141872       0.01194290       0.00451737       0.00279842  8.04385409E-04  1.69799205E-04  1.96061525E-07  4.79380612E-07  3.80788221E-07  2.73192772E-04       0.00175607  2.16701435E-06  7.65974128E-07  3.23836941E-07  1.07305727E-10  1.21177742E-10  1.75668897E-06  1.06201097E-05       0.00105985
           0.00196643  5.82260513E-08  1.32239151E-04  9.10570649E-05  5.34823280E-05  2.88419774E-04       0.00667431       0.00381579       0.00267958       0.00189392       0.00136079  1.15002214E-04  2.54617229E-04  8.01404737E-09  1.01321487E-10  1.48462732E-10  4.70144064E-06  2.39420240E-07  6.12656685E-07  4.40684032E-07
      3.29988173E-06  2.74759309E-05  7.10519145E-04       0.00398101  4.78217623E-04  2.32667401E-07       0.00160753  7.59889379E-04  3.68988829E-04  9.70635623E-04       0.00805520       0.01189284       0.00389256       0.00354286       0.00107438  3.17673900E-04  4.62107986E-07  3.58784939E-10  1.00284753E-10  1.18142275E-10
      1.37158621E-05  6.11822072E-06  1.09951893E-05  1.22347585E-05  2.90880368E-05  9.38193925E-05       0.00106603       0.00548675       0.00283649       0.00289355       0.00403450       0.00129009       0.00430381       0.00185698       0.00794735       0.01449934       0.00938747       0.00457750       0.00188959       0.00177816
      2.12148285E-04  1.43290093E-10  1.00000001E-10  1.17415223E-10  4.57533661E-07  1.34963964E-05  2.35225908E-05  3.23062099E-05  3.98562743E-05  5.74212768E-05       0.00595600       0.00649451       0.00321766       0.00411130       0.00716415       0.00231031       0.00362030       0.00430818       0.00298011       0.00392054
           0.00721194       0.00866567       0.00309956       0.00375752  3.54356603E-04  4.05614469E-06  9.60990941E-05  1.05283092E-04  1.02395658E-10  6.17912940E-06  1.92709871E-05  2.20644163E-05  2.21323812E-05  4.41629942E-04       0.00195848       0.00305850       0.00394493  8.13805438E-04       0.00160947  7.18374389E-04
           0.00134402       0.00288467  9.06282315E-04       0.00143518       0.00474831       0.00540658       0.00180346       0.00145227       0.00347125       0.01272736       0.00590245       0.00228438       0.00328273       0.01317292       0.01138509       0.00500408       0.00825917       0.00220929  1.60122321E-04  8.63483725E-04
      2.51121610E-04  1.04249780E-10  1.21094043E-10  1.59087110E-05  1.41471574E-05  1.46008665E-05  4.02729936E-04  1.01290539E-04  4.00015822E-04  7.21920958E-04  3.18523523E-04  5.27282685E-04       0.00103066  9.18295550E-04       0.00117233       0.00170328  7.65630382E-04       0.00187333       0.00204656       0.00276204
           0.00235358       0.00362100       0.00308470       0.00402189       0.00215313       0.00135637  8.93078364E-04       0.00153664       0.00113917  8.74556164E-04  9.64318601E-04  9.96245660E-04  9.64661250E-04       0.00124835  7.39164029E-04       0.00120748  5.54791299E-04       0.00108332       0.00118811  7.42281208E-04
           0.00168006  7.52611317E-04  7.71468389E-04  6.86706580E-04  4.92585482E-04  6.72049930E-04       0.00108692  8.06430561E-04       0.00204438       0.00144709  7.96230932E-04  8.55725154E-04       0.00145518       0.00121164       0.00175994       0.00944869       0.00103935       0.00186486       0.00108599       0.00124124
           0.00364544       0.00511258       0.00247897       0.00265406       0.00668997       0.00276347       0.00513061       0.00265374       0.00296008       0.00260978       0.00325059  7.82132075E-04       0.00106657       0.00218151       0.00215184       0.00178534  3.33200863E-04  3.11223597E-04  9.57313596E-05  4.39041812E-05
           0.00168189  1.09655787E-05  1.34774022E-05  9.80016286E-06  3.30500166E-04  5.26018430E-04  9.15103946E-06  1.07583293E-05  8.52265517E-06  1.02347184E-05  2.07865238E-04  5.44288551E-04  4.29978902E-04  6.24753126E-04       0.00118502       0.00218731  2.27779332E-04  2.77560582E-04  1.73326967E-04  1.71033183E-04
      5.45986756E-04  5.51624850E-04  2.41800569E-04  2.25689846E-04       0.00491732       0.00326145       0.00149535       0.00179568  9.05463755E-04       0.00116172       0.00111688       0.00883267       0.00717409       0.01093620       0.00406576       0.00117959       0.00129706  4.10874748E-07  5.13067478E-08  1.68666770E-07
      9.28174483E-06  3.18723877E-06  2.74481744E-06  4.25911782E-06  4.86529173E-06  1.30939644E-04       0.00465375       0.00188538       0.00189594       0.00177696  6.11147821E-04       0.00148206       0.00191843       0.00299290       0.00344475       0.00416779       0.00180247       0.00738147       0.00414601       0.00469708
           0.00247642  6.85625159E-04  6.22977273E-04       0.00215251  8.16528724E-04       0.00155345       0.00199818       0.00154641       0.00135300  4.03307716E-04  6.69121895E-04       0.00172969       0.00119218       0.00118619  8.41189171E-04  4.38265310E-04  2.59094467E-04  3.49505797E-04  1.83349300E-04  7.48868186E-04
      5.01350974E-04  4.34139693E-04  2.79570506E-04  2.10213593E-04  8.78759476E-05  1.37137654E-04  7.91245655E-05  8.69552457E-05  3.44601187E-05  8.88523134E-05  7.41669765E-05  1.96477077E-05  1.03508064E-05  1.22008556E-05  8.91850141E-06  1.35961307E-04  1.76284334E-04  9.12630968E-05  5.62373430E-05  1.89729589E-05
      1.20076280E-05  2.83628775E-05  2.49762462E-05  7.59817211E-06  8.76787041E-06  1.03820680E-05  1.24471485E-05  5.07033876E-04  6.69726830E-04  5.61356990E-04  2.18340326E-04  2.16853927E-05  2.09560938E-05  2.93981202E-05  4.35543011E-05  1.20461214E-04  1.74278537E-04  7.74657262E-05  5.75213744E-05  1.32838654E-04
      1.44791673E-04  1.32564838E-04  9.88926864E-05  2.72147376E-04  5.26037645E-04  1.65727009E-04       0.00137638  1.19273214E-04  1.27895337E-04  1.54689697E-04  3.83059529E-04  2.12984513E-04       0.00143550  1.23573612E-04       0.00172539       0.00121811  9.26897549E-04       0.00115888  8.30109813E-04  8.62812512E-04
           0.00121992  7.47565246E-04       0.00604702       0.00414790       0.00321345       0.00103425       0.00133603       0.00151018  7.79437803E-05  4.04409482E-07  5.95954177E-07  8.92778326E-06  3.85831706E-07  3.88964478E-07  3.94963442E-06  8.16820847E-05  6.87320003E-06  5.29835590E-04       0.00401626       0.00127724
      1.37375289E-04  1.81859983E-04  9.63976851E-05  4.45784251E-05  3.64007998E-05  5.20022457E-05  4.71259483E-05  3.93469851E-05  4.45774729E-05  3.89225208E-05  2.97671053E-05  4.99913888E-05  3.53767953E-05  5.18842931E-05  5.25234269E-05  4.50815550E-05  4.94863629E-05  5.83624099E-05  1.59791714E-05  1.23976094E-04
      5.57332172E-04  3.26638248E-05  5.08795470E-04  4.45604454E-04       0.00186859       0.00217198       0.00370339  2.63282051E-05       0.00278910       0.00237682       0.00125020       0.00253485       0.00182701       0.00503175       0.00532246       0.00374296       0.00297467       0.00367810       0.00386459       0.00152768
      6.33634327E-07  1.20015035E-06  2.80640939E-06  2.71608332E-07  6.72200327E-07  2.22564248E-06  1.84139910E-04  1.45267456E-06  1.03941527E-04  6.78775966E-04  1.64430550E-04  4.63395105E-05  2.23899459E-05  4.23958725E-05  4.16479505E-05  6.59029568E-05  4.49233630E-04       0.00511446       0.00653725       0.00268140
           0.01178467       0.01346900       0.00547968       0.00485016  1.61469001E-04  4.76788740E-07  2.70130840E-06  6.74486077E-07  3.33075251E-06  1.06496497E-05  1.99178278E-06  7.52210281E-07  3.36176453E-07  7.01866675E-07  9.21193862E-05  2.36135440E-05  1.74013969E-05  1.28804975E-05  2.47720481E-05  1.48774270E-05
      5.37779333E-04       0.02171104       0.00692700       0.00736339       0.00753379       0.01031404       0.00793016       0.00840121  3.97635862E-07  5.97110405E-07  9.41592983E-06  6.54380537E-07  3.57914892E-06  4.36279165E-06  2.90348687E-06  9.85731675E-07  3.16714488E-07  4.60514153E-07  2.80902170E-04  1.67870703E-04
      8.89666160E-06  1.37848043E-06  2.76498973E-05  3.49306868E-06       0.00125160       0.00771271       0.00460369       0.00660602       0.00381939  9.19321519E-04       0.00349065       0.00613765  2.18620700E-07  3.23378066E-07  3.71989715E-06  4.21914238E-07  1.57594705E-06  1.48767306E-06  3.27574189E-06  1.51443528E-06
      3.03354711E-07  7.40698725E-04       0.00470926       0.00146029  2.14928786E-05  1.65323506E-05  5.40043980E-04       0.00146553       0.00183291       0.00335845  8.87721609E-04       0.00379376       0.00195032       0.00204323       0.00142097  8.71030072E-04  3.40505740E-07  5.82127702E-07  1.10527140E-06  5.86411583E-07
      5.96304974E-07  8.00480347E-07  2.14670335E-06  1.90218294E-06  6.80304613E-07       0.00261632       0.00468302       0.00139437  3.00097508E-05  3.83472692E-05  8.99615795E-04       0.00110730       0.00414869  6.86694672E-04  3.33971163E-04  8.74650154E-04       0.00308596       0.00299308       0.00335709       0.00285008
    INTERNAL  FACTOR  1.0