# File generated by Flopy version 3.9.2 on 02/19/2025 at 14:27:04.
BEGIN options
  SAVE_FLOWS
  SAVE_SPECIFIC_DISCHARGE
  SAVE_SATURATION
END options

BEGIN griddata
  icelltype
    CONSTANT  0
  k
    INTERNAL  FACTOR  1.0
    4.05265542E-09  5.36860405E-09  5.88848888E-07  2.06353638E-07  4.37635406E-07  7.33041430E-08  4.77034400E-07  2.43129484E-07  3.05959066E-08  8.46213942E-08  7.46646793E-09  5.08277328E-07  1.12757239E-07  8.58116866E-08  3.05792448E-07  1.23046303E-07  3.17920770E-08  1.28682538E-08  2.19832871E-08  2.02607023E-06
    2.58145372E-06  3.60503208E-08  3.42507075E-08  1.01437165E-06  6.70031503E-08  9.92381204E-08  1.32729521E-06  1.96645940E-07  9.37322415E-08  3.96031085E-07  1.51964571E-07  2.85499469E-08  1.00727907E-06  9.13594891E-08  3.64438179E-07  5.69362680E-06  1.11038397E-07  2.22512925E-07  6.73972085E-06  4.84891629E-07
    9.08687122E-08  1.40163882E-06  7.49476437E-07  1.39684365E-07  3.29499691E-06  2.90093148E-07  5.68830330E-07  1.78435514E-06  3.90902053E-06  6.00058412E-07  1.01172130E-06  2.52337763E-06  5.89669602E-07  1.43179464E-06  7.31904416E-07  5.53295604E-07  6.80201824E-07  5.84740509E-07  1.12728130E-07  1.22953964E-07
    1.76105809E-07  9.74920345E-08  2.28621563E-07  1.05037657E-07  1.35758233E-07  1.40091067E-06  6.05761359E-07  4.86689561E-07  4.22769356E-07  4.88188919E-07  4.35511036E-07  8.51415179E-07  4.91304511E-07  1.17983794E-06  8.23261065E-07  2.32909860E-07  1.64702732E-07  2.33596483E-07  1.73869128E-07  1.41324000E-07
    2.51028854E-07  2.16423237E-07  2.58369617E-07  2.36454535E-07  1.92745073E-07  1.76355346E-07  2.13109880E-07  1.77495713E-07  1.40940552E-07  1.74608717E-07  2.17907593E-07  2.11142299E-07  2.58570289E-07  2.31701703E-07  1.76548608E-07  2.33167450E-07  1.47245410E-07  2.76559450E-07  2.59095786E-07  1.89619353E-07
    1.69056251E-07  1.80991940E-07  1.65790072E-07  3.05583208E-07  1.72660833E-07  1.84489617E-07  1.62523642E-07  1.61264299E-07  1.42224343E-07  1.25031123E-07  2.65761779E-07  1.17104853E-07  2.61669747E-07  1.45058692E-07  1.30413739E-07  1.39083818E-07  1.25997669E-07  1.20701765E-07  2.41090921E-07  1.22173034E-07
    2.33398774E-07  2.27136922E-07  1.59912948E-07  1.78038327E-07  2.33900181E-07  7.04230513E-07  1.90807055E-07  1.98318886E-07  2.76380482E-07  3.01404117E-07  3.33393086E-07  3.59178477E-07  2.64017458E-07  2.56478002E-07  4.17324733E-07  3.48124019E-07  4.49668794E-07  2.50559149E-07  2.32592373E-07  2.23841235E-07
    1.95507838E-07  2.15905863E-07  3.19007920E-07  2.00514448E-07  3.17681300E-07  2.28637802E-07  2.22848058E-07  2.30660951E-07  2.34906085E-07  2.58788661E-07  3.17057920E-07  2.86627459E-07  3.18631607E-07  3.46764933E-07  3.18101700E-07  3.37445495E-07  2.91702935E-07  6.21404757E-07  6.34441404E-07  7.16792229E-07
    7.25108755E-07  3.68506437E-07  4.04644814E-07  3.86552508E-07  4.61312153E-07  6.79617176E-07  7.97244229E-07  6.66215759E-07  8.36237450E-07  5.38081185E-07  2.63560982E-06  5.02125033E-07  1.26891203E-06  9.03429541E-07  1.39498303E-06  1.00103172E-06  1.79600464E-06  1.83324722E-06  2.39178276E-06  2.07693440E-06
    2.47299856E-06  3.83350928E-06  5.09847787E-06  3.42184950E-06  5.30030396E-06  3.27448677E-06  5.38496299E-06  4.98346938E-06  4.28895184E-06  5.06870754E-06  4.33879524E-06  2.88807485E-06  1.07881565E-05  4.81613993E-06  5.68161081E-06  5.45517532E-06  5.91416183E-06  5.01009477E-06  5.15635772E-06  4.96459736E-06
    4.52561942E-06  4.30252690E-06  3.51931243E-06  9.65338397E-06  1.10517868E-05  4.38942631E-06  3.04765316E-06  7.13511449E-06  1.24664858E-06  1.92538762E-06  3.43391824E-07  9.06816470E-08  7.48565393E-08  2.57778656E-07  7.79228465E-07  8.80145702E-06  4.60560410E-07  6.96806619E-08  6.88386577E-08  6.50957036E-07
    5.87976146E-07  1.85407934E-07  2.01296148E-07  3.78607461E-07  2.87446503E-07  8.87924257E-07  5.05358706E-07  1.25190715E-07  3.44613932E-07  2.99216904E-07  3.21122473E-07  3.32150910E-07  3.66144146E-07  3.55213998E-07  4.18726817E-07  3.87082303E-07  4.67550343E-07  3.13995756E-07  4.21584094E-07  3.44466981E-07
    4.36248775E-07  3.05766579E-07  4.93849953E-07  5.99256542E-07  5.49481917E-07  6.65447831E-07  6.31301316E-07  9.37035664E-07  6.17990046E-07  9.84906363E-07  5.05654143E-07  1.04019804E-06  5.00138279E-07  1.24396789E-06  1.43282135E-06  1.40557285E-06  2.00769492E-06  1.64731170E-06  2.06511632E-07  2.45917237E-07
    1.15791058E-07  8.47090379E-08  4.68185141E-07  9.22557454E-07  9.08741144E-07  6.77464832E-07  7.33781813E-07  1.28556972E-07  3.57735164E-07  1.28620066E-06  1.63554700E-06  1.42253410E-06  1.57538210E-06  2.21113936E-06  2.39038057E-06  2.26889977E-06  2.37361144E-06  1.29328584E-06  1.05295599E-06  1.24532284E-06
    8.96059068E-07  1.52399029E-06  1.75989982E-06  1.29998235E-06  1.57044419E-06  1.94180801E-06  1.96165932E-06  1.57515553E-06  1.31276026E-06  2.42507604E-06  2.98725870E-06  1.82945638E-06  2.57359326E-06  1.64357558E-06  1.34325988E-06  1.67180249E-06  1.35578813E-06  1.52493348E-06  1.73861737E-06  1.42834370E-06
    1.48598067E-06  7.22596238E-07  6.58431857E-07  5.84098532E-07  5.81991714E-07  5.98478403E-07  5.17827686E-07  4.42233147E-07  3.36135181E-07  1.76503553E-07  4.36117665E-07  1.09758193E-07  3.88524821E-07  3.30469762E-07  2.22589117E-07  2.97188623E-07  1.91531908E-07  3.74545955E-07  4.85332931E-07  2.05742397E-07
    3.22372580E-07  6.46289669E-07  8.58295250E-07  4.77765032E-07  6.89574620E-07  9.77466432E-08  2.72894859E-07  7.25536321E-08  2.56141818E-07  3.41235875E-07  3.75315386E-07  3.01078609E-07  2.94463383E-07  6.61419950E-08  5.59322231E-08  1.58035613E-07  9.30276117E-08  1.63410636E-07  2.38464683E-07  1.65899579E-07
    2.20214731E-07  1.57304665E-07  4.47130533E-08  6.25493367E-08  7.82143468E-08  1.15041778E-07  8.06033080E-08  8.40804985E-08  1.73544812E-07  2.42214622E-07  1.41966493E-07  2.24015866E-07  4.07650648E-08  2.64932967E-08  3.08059671E-08  1.37915563E-08  1.39276019E-08  1.46516451E-08  8.93320335E-09  1.38640634E-08
    5.28472738E-09  8.58077995E-09  2.99820959E-06  4.10004345E-06  2.48695238E-06  3.92246925E-06  4.57792170E-06  3.72409641E-06  4.58958275E-06  3.47772141E-06  2.07811818E-06  2.51721033E-06  1.93390082E-06  2.12153160E-06  2.63420873E-06  2.04433352E-06  2.10966784E-06  1.65251190E-06  3.63135752E-06  3.37736655E-06
    3.56218824E-06  3.26744466E-06  2.95721028E-06  2.30351910E-06  2.29992738E-06  1.93492941E-06  1.99937262E-06  2.18492490E-06  1.08535018E-06  1.97603662E-06  9.76215390E-07  1.34871300E-06  1.66603922E-06  1.16745226E-06  1.51316561E-06  1.83904748E-06  1.65085865E-06  1.74102552E-06  1.65019702E-06  4.07089178E-07
    6.01362679E-07  2.66963433E-07  4.15729731E-07  7.49384494E-07  6.88394792E-07  5.36317308E-07  4.85039802E-07  2.41638132E-06  2.42170189E-06  2.64291973E-06  2.61666777E-06  2.09227465E-06  1.39075383E-06  2.14072068E-06  1.60264120E-06  1.66600560E-06  1.71088262E-06  1.38991117E-06  1.44350309E-06  1.30441548E-06
    9.96753127E-07  1.06968471E-06  8.24131499E-07  2.92609775E-06  3.10210162E-06  1.17337591E-06  1.25798572E-06  1.06955420E-06  1.16392411E-06  1.31693827E-06  1.83620067E-06  1.16240802E-06  1.12101736E-06  1.18190031E-06  8.63778277E-07  7.77438149E-07  2.72211276E-07  3.72941188E-07  2.74341729E-07  3.57188475E-07
    3.34409518E-07  7.73053714E-08  2.82559062E-07  3.70512260E-08  8.66806657E-08  1.25722629E-07  5.46431890E-08  8.28960941E-08  1.22081289E-07  4.10964643E-08  8.96599580E-08  4.28377499E-08  2.43817841E-07  4.90690128E-07  1.25873561E-07  3.34082500E-07  7.88961648E-07  9.70063337E-08  1.71334074E-07  2.02718832E-08
    8.45796493E-09  1.36280019E-08  3.51639489E-09  1.90104172E-08  5.57448921E-09  1.71137063E-09  6.41687043E-09  3.74065750E-07  3.79869916E-07  1.09344442E-07  5.86861216E-07  5.35620739E-07  1.90404721E-07  2.07729989E-07  2.16958357E-07  2.12592280E-07  2.00286783E-07  6.73565372E-08  2.23672416E-07  3.53778759E-06
    7.36575837E-06  1.95132988E-07  1.53042853E-07  6.63838584E-07  4.09779522E-07  1.73192746E-08  3.35241453E-09  2.64221835E-08  2.53395088E-09  1.81068364E-06  3.05932264E-08  1.01731378E-09  2.48260910E-09  5.97295065E-10  1.93844243E-09  8.63688398E-08  3.11173832E-09  2.11304077E-08  6.41659997E-07  2.52465833E-06
    9.17750308E-07  1.34485340E-07  1.01113204E-07  7.87850370E-06  1.00214442E-04  1.99828654E-05  1.10782863E-06  3.20605960E-06  4.35644022E-06  6.01398932E-08  6.58720810E-07  7.49643122E-07  5.95273067E-07  6.35447802E-07  3.77352120E-07  1.70308104E-07  1.70046805E-05  2.33423733E-07  3.16949483E-07  6.29721394E-06
    1.19824895E-04  8.57451618E-07  1.66738015E-06  1.18318932E-07  7.54942032E-07  2.85974830E-07  5.94000755E-07  5.69102559E-05  4.12888727E-04       0.00770971  9.72371456E-05  4.98043322E-06  1.46638132E-06  1.52678513E-06  3.71927516E-06  4.40248643E-08  6.75556493E-08  5.53177976E-06  1.24664274E-05  7.04210468E-05
    5.67253505E-04  4.11818374E-04  5.01494376E-05  3.08597687E-06  2.16472668E-05  1.67872888E-05  7.18103166E-06  1.16765091E-05  1.54072075E-05  7.95844094E-07  9.46022369E-06  9.26509564E-04  1.03529630E-04  2.98596761E-05  1.35553496E-04  8.88636985E-06  6.27920199E-07  2.94673644E-05  9.90898217E-08  1.01411329E-05
    3.16263273E-05  1.25635125E-07  8.31108345E-06  2.42946972E-05  2.70839063E-06  2.37999989E-05  3.68477421E-05  1.81844948E-06  4.92024189E-06  7.68257702E-04  1.76193588E-05  2.28422721E-05  1.44596843E-04  1.06021507E-04  1.42022410E-05  4.94696387E-06  9.21510888E-05  1.08097711E-05  2.78042217E-05  6.18054786E-06
    2.55574281E-07  6.32619555E-09  5.31030044E-07  1.02941213E-08  3.60687790E-06  4.19490673E-06  6.36886215E-06  3.69459155E-06  5.86255110E-06  8.37327731E-07  4.53878243E-06  1.98137815E-06  6.88932258E-07  8.14530210E-06  3.15620901E-06  1.71023215E-07  3.20114564E-08  1.94597826E-06  3.78757088E-07  2.00476518E-05
    3.00164776E-05  2.50985434E-05  7.56516346E-05  1.57680148E-05  2.63649714E-06  5.86063740E-05  8.69603328E-06  4.32738429E-09  4.35239441E-08  4.12280682E-09  7.54166463E-08  6.11616718E-06  8.39502071E-09  1.58600143E-08  6.82081165E-08  7.36451805E-08  7.97307220E-08  4.29356631E-07  2.11511046E-07  1.89210517E-06
    5.25866894E-07  6.24392920E-08  9.59044600E-08  1.54859143E-07  2.34361591E-07  1.84049911E-06  1.19569067E-04  5.74375338E-07  1.50376674E-05  1.12425782E-06  1.95678989E-05  1.28272528E-04  2.21636931E-04  1.43600578E-04  3.03213661E-04  2.01375391E-04  6.54122864E-05  5.25078523E-04  7.86497616E-04  3.49973289E-04
    7.41668676E-04  3.72542960E-04  1.21126243E-04  6.60321655E-04  5.75109901E-05  1.12385596E-05  1.13326355E-05  2.09074552E-06  4.91931999E-08  4.68501275E-06  1.08712135E-06  1.45392518E-05  3.63579364E-05  1.79073159E-04  1.24149011E-06  3.25523022E-07  5.07156933E-07  2.68494125E-06  3.99278786E-05  7.27594503E-05
    1.77119210E-05  4.73276060E-05  2.79303248E-06  2.34350369E-06  6.95002556E-06  2.27495384E-06  2.06756629E-05  1.73367722E-05  1.20127723E-06  1.25120970E-06  1.36565293E-05  1.26624543E-05  6.55522861E-05  3.29028264E-05  4.63184987E-05  6.21668693E-05  5.29308450E-05  4.57910455E-06  4.18788440E-05  2.70051269E-05
    1.67884348E-04  2.03774391E-04  2.57635637E-04  2.67577941E-04  1.69970214E-04  8.15001100E-05  3.74100814E-04  1.15812954E-04  2.85203663E-04  3.41284151E-04  1.62689206E-04  2.80950456E-04  1.81015930E-04  2.04243285E-05  3.21178275E-05  2.05712651E-06  5.85444425E-06  1.01856555E-04  1.74174980E-04  4.57684628E-05
    6.83842800E-05  2.00465342E-04  2.35015752E-04  1.00895370E-04  2.40492046E-04  1.58959793E-05  6.64946091E-05  2.17260460E-04  2.09604028E-04  1.26633610E-04  8.66941412E-05  2.01914770E-04  2.91295398E-04  8.00895588E-05  1.05747740E-04  8.46285733E-05  4.66428617E-05  9.73672737E-05  4.85502797E-05  4.57713427E-05
    6.01251472E-05  4.45883137E-05  7.02012243E-05  2.82435315E-04  1.29807168E-04  1.29726860E-04  1.28042683E-04  3.46099336E-05  1.11016721E-04  6.42701011E-05  1.65645065E-04  6.03942774E-05  2.69599503E-04  1.23562375E-04  4.09683738E-05  7.79956866E-05  2.67855910E-05  1.31991540E-04  2.98421520E-04  2.12684154E-04
    2.55365877E-04  1.37650015E-04  1.83274604E-04  3.81035262E-04  5.64776166E-04       0.00112889       0.00130029  3.08207130E-06  5.95168472E-08  4.67507022E-04  1.33685113E-05  2.02832492E-06  2.78288462E-07  3.69174459E-06  5.09578476E-06  1.43341484E-04       0.00267859  8.39246353E-04  4.89659656E-05  2.65098545E-05
    1.28797935E-06  3.64828722E-06  1.49717020E-06  3.23181394E-06  5.72032476E-05  7.79227269E-05  5.75316642E-06  1.07307048E-05  5.66306756E-04  2.81558552E-06  1.05445722E-04       0.00124134  3.65239034E-05  2.18085947E-06  9.32530262E-08  4.08697608E-05  3.53951026E-04       0.00345709       0.00262785  3.34913154E-04
    2.85887719E-05  3.03595985E-05  1.15701266E-06  5.14597867E-06  2.10169612E-06  1.61817794E-06  4.74385586E-06  5.75030599E-05       0.00201582       0.00196440  7.34892639E-04  6.42924384E-05  4.04310185E-05  8.48387226E-06  8.23361681E-08  2.27110272E-06  5.47517592E-07  1.87380230E-05  1.49709485E-08  9.15788720E-09
    1.72265222E-07  1.09226916E-06  1.41917603E-06  8.84211576E-07  3.86385612E-05  5.13338283E-09  4.21930016E-09  4.22291541E-08  1.29529865E-10  1.18551965E-10  6.13055659E-08  1.80672129E-08  9.42336870E-09  9.78046973E-08  3.66128211E-07  3.19605771E-08  5.68825084E-08  1.05113570E-09  8.96474674E-09  4.95221858E-08
    4.48190411E-10  4.90203974E-09  2.43558123E-09  1.29514283E-08  8.28547570E-09  1.61706393E-10  6.46276862E-08  1.46881234E-06  2.20625378E-09  1.42548385E-10  2.47589007E-08  1.54406322E-08  3.70225265E-08  4.59918218E-07  2.59770892E-10  2.08733464E-07  2.42518643E-07  1.06519061E-10  3.51660377E-08  1.25713238E-05
    1.77791582E-06  8.09063393E-07  1.99133132E-07  6.16131499E-09  1.00000000E-10  1.41694336E-08  1.06573900E-09  8.16795957E-08  6.25124557E-09  1.03245749E-10  1.00000000E-10  2.11352974E-10  1.00528356E-10  1.00000000E-10  1.01678373E-10  1.00000000E-10  1.00000000E-10  1.00000000E-10  1.00000000E-10  1.01959683E-10
    2.91138940E-10  1.00000000E-10  8.56218678E-10  2.83380344E-09  5.64307275E-08  9.15603497E-09  4.50544411E-08  1.02628736E-08  8.52783677E-09  3.06098911E-09  1.19726026E-10  9.40852280E-10  6.47689458E-08  1.43078666E-10  1.71227873E-09  8.68636783E-08  2.69219010E-07  1.21268424E-09  8.92580478E-08  4.94061072E-08
    1.00000000E-10  1.00000000E-10  2.86589373E-10  1.83251575E-10  1.07104975E-10  1.82561117E-09  2.93449678E-10  9.08426736E-09  5.41195287E-08  4.38856699E-08  2.88455412E-07  5.97086876E-06  8.52615237E-06  1.73375424E-08  9.99829243E-09  1.55169973E-08  1.22556146E-09  1.99187257E-08  4.59140260E-08  1.64553806E-09
    6.05463480E-09  2.98049711E-08  4.42757929E-10  7.63854461E-08  5.40136024E-10  1.00774623E-09  4.50772166E-09  4.39506128E-09  1.52286624E-08  1.93920672E-08  1.66995589E-07  3.36224893E-09  4.06362545E-10  1.19362017E-10  3.57018123E-09  7.53527583E-08  8.20370351E-08  4.64255148E-08  2.47400247E-05  7.99651657E-06
    3.84135284E-05  2.44153323E-05  1.34245129E-05  1.00075935E-08  6.51346335E-10  2.29991016E-07  5.60156786E-09  2.48505353E-08  3.08838433E-08  9.15213862E-10  1.00111223E-08  8.61450033E-10  1.75248170E-07  8.82474880E-08  1.94369639E-06  1.57754060E-07  1.42447068E-06  1.03832031E-07  1.18746318E-08  3.17458766E-10
    2.83681906E-10  2.93855871E-10  4.81102753E-10  1.09882795E-09  1.10370591E-08  2.41068322E-09  4.07746053E-08  3.19917380E-08  8.37847987E-10  2.34535374E-10  1.21028661E-10  1.39376654E-08  2.81018389E-07  1.97838563E-06  1.00000000E-10  1.00000000E-10  1.00000000E-10  1.00000000E-10  1.00000000E-10  1.20734817E-10
    4.77072927E-10  1.00000000E-10  1.00000000E-10  1.00000000E-10  1.00000000E-10  1.00000000E-10  1.00000000E-10  1.00000000E-10  1.00000000E-10  1.00000000E-10  1.00000000E-10  1.00000000E-10  1.00000000E-10  1.00000000E-10  1.00000000E-10  1.00000000E-10  1.00000000E-10  1.00374294E-10  1.00000000E-10  1.00000000E-10
    1.00000000E-10  1.00000000E-10  1.00000000E-10  1.00000000E-10  1.00000000E-10  1.00000000E-10  1.00000000E-10  1.00000000E-10  1.06659777E-10  2.05529485E-10  1.00000000E-10  1.00000000E-10  1.00000000E-10  1.00000000E-10  1.00000000E-10  1.00000000E-10  1.00000000E-10  1.00000000E-10  1.00000000E-10  1.00000000E-10
    1.00000000E-10  1.00000000E-10  1.00000000E-10  1.00000000E-10  1.00000000E-10  1.00000000E-10  1.00000000E-10  1.00000000E-10  1.00000000E-10  1.00000000E-10  1.00000000E-10  1.00000000E-10  1.00000000E-10  1.00000000E-10  1.00000000E-10  1.00000000E-10  1.00000000E-10  1.00000000E-10  1.00000000E-10  1.00000000E-10
    1.00000000E-10  1.00000000E-10  1.00000000E-10  1.00000000E-10  1.00000000E-10  1.00000000E-10  1.00000000E-10  1.00000000E-10  1.00000000E-10  1.00000000E-10  1.00000000E-10  1.00000000E-10  1.00000000E-10  1.00000000E-10  1.00000000E-10  1.00000000E-10  1.00000000E-10  1.00000000E-10  1.00000000E-10  1.00000000E-10
    1.00000000E-10  1.00000000E-10  1.00000000E-10  1.00000000E-10  1.00000000E-10  1.00000000E-10  1.00000000E-10  1.00000000E-10  1.00000000E-10  1.00000000E-10  1.00000000E-10  1.00000000E-10  1.00000000E-10  1.00000000E-10  1.00000000E-10  1.00000000E-10  1.00000000E-10  1.00000000E-10  1.00000000E-10  1.00000000E-10
    1.00000000E-10  1.00000000E-10
  k22
    INTERNAL  FACTOR  1.0
    4.97602043E-09  5.19601934E-09  5.63442952E-07  2.06752303E-07  4.31007846E-07  7.54941750E-08  4.85730301E-07  2.26170112E-07  4.47071502E-08  7.81465604E-08  7.40343551E-09  5.02734139E-07  1.10206413E-07  7.38878178E-08  2.80750246E-07  1.22763598E-07  3.11112810E-08  1.33391234E-08  2.29153246E-08  1.95234227E-06
    2.66009801E-06  3.29581864E-08  3.33278050E-08  1.02293414E-06  6.45814383E-08  9.84378150E-08  1.35357669E-06  1.93047734E-07  9.92164476E-08  4.28072636E-07  1.42144721E-07  2.81483134E-08  9.32861292E-07  8.63484786E-08  3.62295474E-07  4.27267328E-06  1.10671130E-07  2.67786470E-07  8.36464878E-06  5.59637519E-07
    8.61748905E-08  1.28337551E-06  7.47060909E-07  1.39143083E-07  3.95194051E-06  3.12982773E-07  5.34921183E-07  1.80055789E-06  4.70288839E-06  6.06145387E-07  1.06353605E-06  2.11947347E-06  5.70343391E-07  1.38371908E-06  7.04298554E-07  5.24365107E-07  6.80493786E-07  5.52286708E-07  1.04268977E-07  1.20000407E-07
    1.67057270E-07  9.72946967E-08  2.16192693E-07  1.05165892E-07  1.35280163E-07  1.35176562E-06  6.09440767E-07  4.94910768E-07  4.20058866E-07  4.87762970E-07  4.32515172E-07  8.12385120E-07  4.91235350E-07  1.17349127E-06  7.77473580E-07  2.32966120E-07  1.67022200E-07  2.33596483E-07  1.73153931E-07  1.51532697E-07
    2.51192923E-07  2.16485786E-07  2.58369617E-07  2.36101164E-07  1.93101871E-07  1.76379433E-07  2.12944930E-07  1.77495713E-07  1.40199040E-07  1.74617906E-07  2.23229346E-07  2.10566495E-07  2.57715696E-07  2.19959626E-07  1.77611724E-07  2.39499643E-07  1.47245410E-07  2.75519927E-07  2.58791587E-07  1.89715192E-07
    1.69088658E-07  1.80802150E-07  1.65790072E-07  3.02798386E-07  1.72528947E-07  1.84988720E-07  1.63155409E-07  1.61198873E-07  1.41854791E-07  1.30452852E-07  2.65456567E-07  1.17104853E-07  2.61326935E-07  1.45001368E-07  1.30297860E-07  1.38844957E-07  1.25829555E-07  1.20744961E-07  2.45225801E-07  1.22173034E-07
    2.32254804E-07  2.26586007E-07  1.58270473E-07  1.77261156E-07  2.29302292E-07  6.87427272E-07  1.91373052E-07  1.98456885E-07  2.84291179E-07  3.09794018E-07  3.32421321E-07  3.58569949E-07  2.71173287E-07  2.50438392E-07  4.16491472E-07  3.49107604E-07  4.38023612E-07  2.51063222E-07  2.33901941E-07  2.23387005E-07
    1.95464833E-07  2.16296829E-07  3.19518139E-07  2.00514448E-07  3.10054557E-07  2.34680117E-07  2.28423580E-07  2.30601781E-07  2.34584326E-07  2.65897549E-07  3.17117258E-07  2.86627459E-07  3.17649695E-07  3.50455221E-07  3.18801306E-07  3.37006191E-07  2.91702935E-07  6.34295854E-07  6.39428939E-07  7.06417353E-07
    7.24807465E-07  3.61544513E-07  4.19509241E-07  3.67798672E-07  4.61312153E-07  6.78718737E-07  7.92032048E-07  6.65507647E-07  8.05238416E-07  5.27169861E-07  2.65506533E-06  5.09485503E-07  1.22843369E-06  9.23330956E-07  1.41397772E-06  9.97539510E-07  1.79600464E-06  1.83400220E-06  2.38448079E-06  2.07363266E-06
    2.46311466E-06  3.83021898E-06  5.05449708E-06  3.53336438E-06  5.26817633E-06  3.27448677E-06  5.30670265E-06  4.97555600E-06  4.27181163E-06  5.05348767E-06  4.31582465E-06  2.89451822E-06  1.08146203E-05  4.82346338E-06  5.64543527E-06  5.44822904E-06  5.91400896E-06  5.01261000E-06  5.16175009E-06  4.97243657E-06
    4.54735207E-06  4.30311883E-06  3.51993038E-06  9.67498832E-06  1.15676562E-05  4.62606202E-06  3.08530871E-06  7.06906963E-06  1.17355357E-06  1.95074252E-06  3.28503628E-07  8.78077996E-08  8.13117212E-08  2.61680833E-07  7.11380181E-07  8.27551305E-06  4.20551452E-07  6.93983251E-08  7.60557831E-08  6.63662177E-07
    6.08022992E-07  1.94092327E-07  2.00560112E-07  3.77597753E-07  2.87027394E-07  8.90447518E-07  5.13417095E-07  1.18055086E-07  3.38640534E-07  2.99875761E-07  3.17639315E-07  3.31862823E-07  3.55747828E-07  3.69791262E-07  4.35533037E-07  3.87082303E-07  4.66863666E-07  3.12292521E-07  4.27683911E-07  3.48547335E-07
    4.36248775E-07  3.01892287E-07  5.01487260E-07  6.00507119E-07  5.48157874E-07  6.65447831E-07  6.31781232E-07  8.95047473E-07  6.17703525E-07  9.32287766E-07  4.76229279E-07  1.07465956E-06  4.39928526E-07  1.24396789E-06  1.50458510E-06  1.42150744E-06  2.00324697E-06  1.63747729E-06  2.18680869E-07  2.54886044E-07
    1.12937935E-07  8.51299879E-08  4.60528688E-07  9.58427309E-07  8.80922770E-07  6.58726006E-07  6.53235494E-07  1.20902787E-07  3.78285761E-07  1.28762678E-06  1.63706843E-06  1.42202095E-06  1.57538210E-06  2.20080863E-06  2.36721915E-06  2.25231191E-06  2.31308317E-06  1.29348131E-06  1.05990778E-06  1.24398041E-06
    8.96059068E-07  1.52386701E-06  1.76585632E-06  1.29107602E-06  1.56880954E-06  2.00975344E-06  2.09632018E-06  1.57515553E-06  1.31183733E-06  2.45790034E-06  3.00327041E-06  1.74193712E-06  2.57339333E-06  1.68205040E-06  1.36564150E-06  1.67180249E-06  1.35485265E-06  1.48826159E-06  1.74997160E-06  1.37873877E-06
    1.48556010E-06  7.41936360E-07  6.85524713E-07  5.67982933E-07  5.81991714E-07  6.32123773E-07  5.49038835E-07  4.27655303E-07  3.16047001E-07  1.88292078E-07  4.43171041E-07  1.06208360E-07  3.88524821E-07  3.43993314E-07  2.27403026E-07  2.92578151E-07  1.82477155E-07  4.18017733E-07  5.10261651E-07  2.05742397E-07
    3.18502752E-07  6.55703228E-07  8.85094931E-07  4.62169332E-07  6.83684020E-07  1.03700977E-07  2.70226068E-07  7.25536321E-08  2.47195600E-07  3.42424106E-07  3.80848596E-07  2.99694850E-07  2.94251678E-07  6.47823356E-08  5.63900140E-08  1.59137535E-07  9.17291660E-08  1.54026662E-07  2.29196865E-07  1.61907666E-07
    2.04517315E-07  1.53277636E-07  4.42330689E-08  7.12114905E-08  8.02551446E-08  1.21925638E-07  8.06033080E-08  8.33957377E-08  1.70533695E-07  2.42372167E-07  1.29403997E-07  2.23719792E-07  4.34995687E-08  2.89376894E-08  3.65106846E-08  1.37149337E-08  1.38103371E-08  1.42755947E-08  9.00731240E-09  1.35525363E-08
    5.28114888E-09  8.48628366E-09  3.10161562E-06  4.06175898E-06  2.48695238E-06  3.79815450E-06  4.56647377E-06  3.73243230E-06  4.57045755E-06  3.47772141E-06  2.08054649E-06  2.56050255E-06  1.93390082E-06  2.11893183E-06  2.74262379E-06  2.16797778E-06  2.10151058E-06  1.65251190E-06  3.63221948E-06  3.37647850E-06
    3.56085411E-06  3.26056626E-06  2.99777388E-06  2.41953900E-06  2.40618192E-06  1.93338104E-06  1.99783029E-06  2.27939789E-06  1.08507999E-06  1.97603662E-06  9.74933499E-07  1.35575970E-06  1.66652005E-06  1.16745226E-06  1.50836217E-06  1.83759521E-06  1.65237232E-06  1.73858495E-06  1.65019702E-06  4.38143369E-07
    6.37904791E-07  2.66963433E-07  4.12181300E-07  7.88238831E-07  7.46860866E-07  5.25562036E-07  4.85039802E-07  2.41462261E-06  2.42345508E-06  2.62940865E-06  2.61066570E-06  2.09338239E-06  1.40085109E-06  2.14072068E-06  1.60234076E-06  1.69793772E-06  1.77807818E-06  1.33743836E-06  1.43596646E-06  1.36703633E-06
    1.04467662E-06  1.06968471E-06  8.23859147E-07  3.11283790E-06  3.32912510E-06  1.17420275E-06  1.25935325E-06  1.06761532E-06  1.16364884E-06  1.31555191E-06  1.85585834E-06  1.16760634E-06  1.18975216E-06  1.22410635E-06  8.64440266E-07  8.02697473E-07  2.72283612E-07  3.71527402E-07  2.74341729E-07  3.56090025E-07
    3.16638277E-07  9.31890615E-08  2.51029128E-07  3.70512260E-08  9.45220264E-08  1.34729798E-07  5.46431890E-08  8.17202946E-08  1.24554744E-07  4.55299786E-08  8.65943593E-08  4.28377499E-08  2.55049768E-07  4.96293432E-07  1.03710422E-07  2.79116909E-07  8.29575868E-07  9.89332866E-08  2.02039732E-07  2.41392284E-08
    1.02549424E-08  1.36280019E-08  3.16613784E-09  2.31036723E-08  5.38968749E-09  1.73694476E-09  6.72566879E-09  4.19163281E-07  4.36980692E-07  9.92368858E-08  6.79904681E-07  5.79135716E-07  1.99433965E-07  2.45745792E-07  2.17152328E-07  2.15286257E-07  2.09920262E-07  6.24335343E-08  2.25779987E-07  1.94885587E-06
    6.98561646E-06  2.49849731E-07  1.54352612E-07  6.60890631E-07  3.98258757E-07  1.62219474E-08  3.41363785E-09  2.55026616E-08  2.44821386E-09  1.74352928E-06  2.51470407E-08  1.08917531E-09  2.57365724E-09  5.79580884E-10  2.02268897E-09  6.57562412E-08  3.03648471E-09  2.02588322E-08  5.43822395E-07  2.40870643E-06
    9.53275388E-07  1.46558452E-07  1.02278137E-07  3.07910235E-06  8.45818152E-05  2.32367030E-05  8.34036498E-07  2.89045038E-06  4.48318487E-06  6.60719146E-08  7.51280251E-07  7.63273161E-07  5.96774456E-07  6.33543743E-07  3.88274257E-07  1.72931097E-07  1.43459755E-05  6.06257901E-07  2.94882344E-07  3.04427907E-06
    6.44139713E-05  8.60099769E-07  1.75992889E-06  1.19711194E-07  8.52559147E-07  3.43645785E-07  6.12718714E-07  5.09825924E-05  3.08227540E-04       0.00704256  4.05915821E-05  5.37454522E-06  1.51446264E-06  1.76354173E-06  3.66990575E-06  3.27987956E-08  7.56047838E-08  6.11810706E-06  1.29233790E-05  7.94750863E-05
    4.05354307E-04  8.44704740E-04  3.30504507E-05  3.08630372E-06  2.04443712E-05  1.59825130E-05  6.51886837E-06  1.74998270E-05  2.66111835E-05  7.89152784E-07  4.46223766E-06  9.12618830E-04  1.04878176E-04  3.47204758E-05  1.30788165E-04  8.51548444E-06  6.60455357E-07  2.37511897E-05  8.80590929E-08  1.15702631E-05
    3.14309165E-05  1.78669037E-07  7.65828982E-06  2.43365353E-05  2.91225140E-06  2.24219141E-05  3.99291718E-05  1.61799017E-06  4.24168767E-06  8.25109536E-04  2.63402168E-05  3.36222619E-05  1.65505526E-04  1.15307308E-04  1.55716414E-05  6.26132013E-06  8.26667605E-05  9.37964475E-06  2.76996465E-05  5.94178164E-06
    1.90872567E-07  5.74034738E-09  3.83471981E-07  9.17644520E-09  4.14969808E-06  4.38886719E-06  6.23338211E-06  3.82299880E-06  5.78599321E-06  8.90625192E-07  3.95805078E-06  1.85228824E-06  6.15980724E-07  6.40511402E-06  3.71224441E-06  2.13523187E-07  3.80445677E-08  2.37654795E-06  3.97855556E-07  1.56790121E-05
    2.75118808E-05  1.99149593E-05  6.11108962E-05  2.04507241E-05  2.69083252E-06  5.35682933E-05  7.97545523E-06  4.26612514E-09  3.15429110E-08  3.65894124E-09  6.00170734E-08  3.47652553E-06  1.21832656E-08  1.77333112E-08  7.87251181E-08  7.72298208E-08  6.36274201E-08  4.21574850E-07  2.16075425E-07  1.97644385E-06
    5.65495238E-07  6.65587671E-08  1.02645029E-07  1.61140389E-07  2.58957447E-07  1.00016025E-06  1.17052109E-04  5.60089058E-07  1.07644779E-05  1.17699280E-06  1.57146169E-05  1.15250473E-04  2.06547285E-04  1.31689437E-04  2.92628536E-04  1.90209631E-04  6.70575545E-05  5.32767151E-04  8.41798441E-04  3.78465412E-04
    7.64407507E-04  3.70538901E-04  1.21186102E-04  6.69439252E-04  5.69620538E-05  1.07082407E-05  1.10608186E-05  1.45973900E-06  6.35297552E-08  5.59649388E-06  1.16131754E-06  1.25037213E-05  2.73470536E-05  1.33961482E-04  1.33401022E-06  3.32709140E-07  5.74842088E-07  2.15038655E-06  3.55388507E-05  5.35064928E-05
    1.88504605E-05  5.85655323E-05  2.86175085E-06  2.54321279E-06  7.39749968E-06  3.23668149E-06  2.95047339E-05  1.95066437E-05  2.24493293E-06  2.01912632E-06  1.57124578E-05  1.68754207E-05  7.70420592E-05  3.71284440E-05  5.10865750E-05  5.19762754E-05  6.06349931E-05  5.33464257E-06  5.10674566E-05  3.12279338E-05
    1.79099581E-04  2.04318306E-04  2.57347066E-04  2.90614628E-04  1.60735900E-04  7.48079506E-05  3.74722421E-04  1.15592298E-04  2.56437416E-04  3.41765459E-04  1.54476876E-04  2.76187132E-04  1.84859619E-04  2.15980638E-05  3.14191104E-05  2.21604992E-06  5.82714706E-06  1.12512382E-04  2.01853401E-04  4.94067850E-05
    6.11530248E-05  2.24503965E-04  2.06626676E-04  1.00064730E-04  2.09468059E-04  1.94413783E-05  6.67610908E-05  2.19969577E-04  2.15254515E-04  1.20071086E-04  8.35046036E-05  2.16610595E-04  2.91350597E-04  8.18426632E-05  1.06233865E-04  8.39527149E-05  4.68847468E-05  1.01242826E-04  4.42477280E-05  4.85035620E-05
    6.25543674E-05  4.46080225E-05  6.24436442E-05  2.82716635E-04  1.42956421E-04  1.26280761E-04  1.22558529E-04  2.48436962E-05  1.13932345E-04  5.81816236E-05  1.54789888E-04  6.30026093E-05  2.66878579E-04  1.43759937E-04  5.24533425E-05  8.00999550E-05  2.76529835E-05  1.27274907E-04  2.94462192E-04  2.38352368E-04
    2.47516307E-04  1.37185166E-04  1.56019246E-04  4.09443597E-04  8.90141891E-04       0.00111264       0.00144981  3.19166819E-06  7.00867714E-08  7.66734262E-04  1.62459530E-05  2.22788873E-06  2.83722818E-07  5.43452138E-06  3.96626540E-06  1.15924276E-04       0.00248939       0.00143014  7.71716240E-05  3.36046117E-05