# File generated by Flopy version 3.9.1 on 01/23/2025 at 16:56:17.
BEGIN options
END options

BEGIN griddata
  strt
    CONSTANT       1.00000000
END griddata

