MODPATH_TIMESERIES_FILE         7         2
    2   0.0000000000E+00  0.0000000000E+00  0.0000000000E+00  0.0000000000E+00
END HEADER
       0       1  0.0000000000E+00         1    1         1    157334  0.8000000000E+00  0.5000000000E+00  0.3334690000E+00  0.1707000000E+03  0.9975000000E+02 -0.6999999997E+01        17
       0       1  0.0000000000E+00         2    2         1    284734  0.8000000000E+00  0.5000000000E+00  0.1017255000E-03  0.1707000000E+03  0.9975000000E+02 -0.9000000001E+01        30
       1       1  0.1000000000E-01         1    1         1    157334  0.8000000000E+00  0.5000000000E+00  0.3334690002E+00  0.1707000000E+03  0.9975000000E+02 -0.6999999997E+01        17
       1       1  0.1000000000E-01         2    2         1    284734  0.8000000000E+00  0.5000000000E+00  0.1017256616E-03  0.1707000000E+03  0.9975000000E+02 -0.9000000001E+01        30
       2       1  0.2000000000E-01         1    1         1    157334  0.8000000000E+00  0.5000000000E+00  0.3334690005E+00  0.1707000000E+03  0.9975000000E+02 -0.6999999997E+01        17
       2       1  0.2000000000E-01         2    2         1    284734  0.8000000000E+00  0.5000000000E+00  0.1017258232E-03  0.1707000000E+03  0.9975000000E+02 -0.9000000001E+01        30
       3       1  0.3000000000E-01         1    1         1    157334  0.8000000000E+00  0.5000000000E+00  0.3334690007E+00  0.1707000000E+03  0.9975000000E+02 -0.6999999997E+01        17
       3       1  0.3000000000E-01         2    2         1    284734  0.8000000000E+00  0.5000000000E+00  0.1017259848E-03  0.1707000000E+03  0.9975000000E+02 -0.9000000001E+01        30
       4       1  0.4000000000E-01         1    1         1    157334  0.8000000000E+00  0.5000000000E+00  0.3334690009E+00  0.1707000000E+03  0.9975000000E+02 -0.6999999997E+01        17
       4       1  0.4000000000E-01         2    2         1    284734  0.8000000000E+00  0.5000000001E+00  0.1017261464E-03  0.1707000000E+03  0.9975000000E+02 -0.9000000001E+01        30
       5       1  0.5000000000E-01         1    1         1    157334  0.8000000000E+00  0.5000000000E+00  0.3334690011E+00  0.1707000000E+03  0.9975000000E+02 -0.6999999997E+01        17
       5       1  0.5000000000E-01         2    2         1    284734  0.8000000000E+00  0.5000000001E+00  0.1017263080E-03  0.1707000000E+03  0.9975000000E+02 -0.9000000001E+01        30
       6       1  0.6000000000E-01         1    1         1    157334  0.8000000000E+00  0.5000000000E+00  0.3334690014E+00  0.1707000000E+03  0.9975000000E+02 -0.6999999997E+01        17
       6       1  0.6000000000E-01         2    2         1    284734  0.8000000000E+00  0.5000000001E+00  0.1017264696E-03  0.1707000000E+03  0.9975000000E+02 -0.9000000001E+01        30
       7       1  0.7000000000E-01         1    1         1    157334  0.8000000000E+00  0.5000000000E+00  0.3334690016E+00  0.1707000000E+03  0.9975000000E+02 -0.6999999996E+01        17
       7       1  0.7000000000E-01         2    2         1    284734  0.8000000000E+00  0.5000000001E+00  0.1017266312E-03  0.1707000000E+03  0.9975000000E+02 -0.9000000001E+01        30
       8       1  0.8000000000E-01         1    1         1    157334  0.8000000000E+00  0.5000000000E+00  0.3334690018E+00  0.1707000000E+03  0.9975000000E+02 -0.6999999996E+01        17
       8       1  0.8000000000E-01         2    2         1    284734  0.8000000000E+00  0.5000000001E+00  0.1017267928E-03  0.1707000000E+03  0.9975000000E+02 -0.9000000001E+01        30
       9       1  0.9000000000E-01         1    1         1    157334  0.7999999999E+00  0.5000000000E+00  0.3334690020E+00  0.1707000000E+03  0.9975000000E+02 -0.6999999996E+01        17
       9       1  0.9000000000E-01         2    2         1    284734  0.8000000000E+00  0.5000000001E+00  0.1017269544E-03  0.1707000000E+03  0.9975000000E+02 -0.9000000001E+01        30
      10       1  0.1000000000E+00         1    1         1    157334  0.7999999999E+00  0.5000000000E+00  0.3334690023E+00  0.1707000000E+03  0.9975000000E+02 -0.6999999996E+01        17
      10       1  0.1000000000E+00         2    2         1    284734  0.8000000000E+00  0.5000000001E+00  0.1017271160E-03  0.1707000000E+03  0.9975000000E+02 -0.9000000001E+01        30
      11       1  0.1100000000E+00         1    1         1    157334  0.7999999999E+00  0.5000000000E+00  0.3334690025E+00  0.1707000000E+03  0.9975000000E+02 -0.6999999996E+01        17
      11       1  0.1100000000E+00         2    2         1    284734  0.8000000000E+00  0.5000000001E+00  0.1017272776E-03  0.1707000000E+03  0.9975000000E+02 -0.9000000001E+01        30
      12       1  0.1200000000E+00         1    1         1    157334  0.7999999999E+00  0.5000000000E+00  0.3334690027E+00  0.1707000000E+03  0.9975000000E+02 -0.6999999996E+01        17
      12       1  0.1200000000E+00         2    2         1    284734  0.8000000000E+00  0.5000000002E+00  0.1017274392E-03  0.1707000000E+03  0.9975000000E+02 -0.9000000001E+01        30
      13       1  0.1300000000E+00         1    1         1    157334  0.7999999999E+00  0.5000000000E+00  0.3334690029E+00  0.1707000000E+03  0.9975000000E+02 -0.6999999996E+01        17
      13       1  0.1300000000E+00         2    2         1    284734  0.8000000000E+00  0.5000000002E+00  0.1017276008E-03  0.1707000000E+03  0.9975000000E+02 -0.9000000001E+01        30
      14       1  0.1400000000E+00         1    1         1    157334  0.7999999999E+00  0.5000000000E+00  0.3334690032E+00  0.1707000000E+03  0.9975000000E+02 -0.6999999996E+01        17
      14       1  0.1400000000E+00         2    2         1    284734  0.8000000000E+00  0.5000000002E+00  0.1017277624E-03  0.1707000000E+03  0.9975000000E+02 -0.9000000001E+01        30
      15       1  0.1500000000E+00         1    1         1    157334  0.7999999999E+00  0.5000000000E+00  0.3334690034E+00  0.1707000000E+03  0.9975000000E+02 -0.6999999996E+01        17
      15       1  0.1500000000E+00         2    2         1    284734  0.8000000000E+00  0.5000000002E+00  0.1017279240E-03  0.1707000000E+03  0.9975000000E+02 -0.9000000001E+01        30
      16       1  0.1600000000E+00         1    1         1    157334  0.7999999999E+00  0.5000000000E+00  0.3334690036E+00  0.1707000000E+03  0.9975000000E+02 -0.6999999996E+01        17
      16       1  0.1600000000E+00         2    2         1    284734  0.8000000000E+00  0.5000000002E+00  0.1017280856E-03  0.1707000000E+03  0.9975000000E+02 -0.9000000001E+01        30
      17       1  0.1700000000E+00         1    1         1    157334  0.7999999999E+00  0.5000000000E+00  0.3334690038E+00  0.1707000000E+03  0.9975000000E+02 -0.6999999996E+01        17
      17       1  0.1700000000E+00         2    2         1    284734  0.8000000000E+00  0.5000000002E+00  0.1017282472E-03  0.1707000000E+03  0.9975000000E+02 -0.9000000001E+01        30
      18       1  0.1800000000E+00         1    1         1    157334  0.7999999999E+00  0.5000000000E+00  0.3334690041E+00  0.1707000000E+03  0.9975000000E+02 -0.6999999996E+01        17
      18       1  0.1800000000E+00         2    2         1    284734  0.8000000000E+00  0.5000000002E+00  0.1017284088E-03  0.1707000000E+03  0.9975000000E+02 -0.9000000001E+01        30
      19       1  0.1900000000E+00         1    1         1    157334  0.7999999999E+00  0.5000000000E+00  0.3334690043E+00  0.1707000000E+03  0.9975000000E+02 -0.6999999996E+01        17
      19       1  0.1900000000E+00         2    2         1    284734  0.8000000000E+00  0.5000000002E+00  0.1017285704E-03  0.1707000000E+03  0.9975000000E+02 -0.9000000001E+01        30
      20       1  0.2000000000E+00         1    1         1    157334  0.7999999999E+00  0.5000000000E+00  0.3334690045E+00  0.1707000000E+03  0.9975000000E+02 -0.6999999996E+01        17
      20       1  0.2000000000E+00         2    2         1    284734  0.8000000000E+00  0.5000000003E+00  0.1017287320E-03  0.1707000000E+03  0.9975000000E+02 -0.9000000001E+01        30
      21       1  0.2100000000E+00         1    1         1    157334  0.7999999999E+00  0.5000000000E+00  0.3334690047E+00  0.1707000000E+03  0.9975000000E+02 -0.6999999996E+01        17
      21       1  0.2100000000E+00         2    2         1    284734  0.8000000000E+00  0.5000000003E+00  0.1017288936E-03  0.1707000000E+03  0.9975000000E+02 -0.9000000001E+01        30
      22       1  0.2200000000E+00         1    1         1    157334  0.7999999999E+00  0.5000000000E+00  0.3334690050E+00  0.1707000000E+03  0.9975000000E+02 -0.6999999996E+01        17
      22       1  0.2200000000E+00         2    2         1    284734  0.8000000000E+00  0.5000000003E+00  0.1017290552E-03  0.1707000000E+03  0.9975000000E+02 -0.9000000001E+01        30
      23       1  0.2300000000E+00         1    1         1    157334  0.7999999999E+00  0.5000000000E+00  0.3334690052E+00  0.1707000000E+03  0.9975000000E+02 -0.6999999996E+01        17
      23       1  0.2300000000E+00         2    2         1    284734  0.8000000000E+00  0.5000000003E+00  0.1017292168E-03  0.1707000000E+03  0.9975000000E+02 -0.9000000001E+01        30
      24       1  0.2400000000E+00         1    1         1    157334  0.7999999999E+00  0.5000000000E+00  0.3334690054E+00  0.1707000000E+03  0.9975000000E+02 -0.6999999996E+01        17
      24       1  0.2400000000E+00         2    2         1    284734  0.8000000000E+00  0.5000000003E+00  0.1017293784E-03  0.1707000000E+03  0.9975000000E+02 -0.9000000001E+01        30
      25       1  0.2500000000E+00         1    1         1    157334  0.7999999999E+00  0.5000000000E+00  0.3334690056E+00  0.1707000000E+03  0.9975000000E+02 -0.6999999996E+01        17
      25       1  0.2500000000E+00         2    2         1    284734  0.8000000000E+00  0.5000000003E+00  0.1017295400E-03  0.1707000000E+03  0.9975000000E+02 -0.9000000001E+01        30
      26       1  0.2600000000E+00         1    1         1    157334  0.7999999999E+00  0.5000000000E+00  0.3334690059E+00  0.1707000000E+03  0.9975000000E+02 -0.6999999996E+01        17
      26       1  0.2600000000E+00         2    2         1    284734  0.8000000000E+00  0.5000000003E+00  0.1017297016E-03  0.1707000000E+03  0.9975000000E+02 -0.9000000001E+01        30
      27       1  0.2700000000E+00         1    1         1    157334  0.7999999998E+00  0.5000000000E+00  0.3334690061E+00  0.1707000000E+03  0.9975000000E+02 -0.6999999996E+01        17
      27       1  0.2700000000E+00         2    2         1    284734  0.8000000000E+00  0.5000000004E+00  0.1017298632E-03  0.1707000000E+03  0.9975000000E+02 -0.9000000001E+01        30
      28       1  0.2800000000E+00         1    1         1    157334  0.7999999998E+00  0.5000000000E+00  0.3334690063E+00  0.1707000000E+03  0.9975000000E+02 -0.6999999996E+01        17
      28       1  0.2800000000E+00         2    2         1    284734  0.8000000000E+00  0.5000000004E+00  0.1017300248E-03  0.1707000000E+03  0.9975000000E+02 -0.9000000001E+01        30
      29       1  0.2900000000E+00         1    1         1    157334  0.7999999998E+00  0.5000000000E+00  0.3334690065E+00  0.1707000000E+03  0.9975000000E+02 -0.6999999996E+01        17
      29       1  0.2900000000E+00         2    2         1    284734  0.8000000000E+00  0.5000000004E+00  0.1017301864E-03  0.1707000000E+03  0.9975000000E+02 -0.9000000001E+01        30
      30       1  0.3000000000E+00         1    1         1    157334  0.7999999998E+00  0.5000000000E+00  0.3334690068E+00  0.1707000000E+03  0.9975000000E+02 -0.6999999996E+01        17
      30       1  0.3000000000E+00         2    2         1    284734  0.8000000000E+00  0.5000000004E+00  0.1017303480E-03  0.1707000000E+03  0.9975000000E+02 -0.9000000000E+01        30
      31       1  0.3100000000E+00         1    1         1    157334  0.7999999998E+00  0.5000000000E+00  0.3334690070E+00  0.1707000000E+03  0.9975000000E+02 -0.6999999996E+01        17
      31       1  0.3100000000E+00         2    2         1    284734  0.8000000000E+00  0.5000000004E+00  0.1017305096E-03  0.1707000000E+03  0.9975000000E+02 -0.9000000000E+01        30
      32       1  0.3200000000E+00         1    1         1    157334  0.7999999998E+00  0.5000000000E+00  0.3334690072E+00  0.1707000000E+03  0.9975000000E+02 -0.6999999996E+01        17
      32       1  0.3200000000E+00         2    2         1    284734  0.8000000000E+00  0.5000000004E+00  0.1017306712E-03  0.1707000000E+03  0.9975000000E+02 -0.9000000000E+01        30
      33       1  0.3300000000E+00         1    1         1    157334  0.7999999998E+00  0.5000000000E+00  0.3334690074E+00  0.1707000000E+03  0.9975000000E+02 -0.6999999996E+01        17
      33       1  0.3300000000E+00         2    2         1    284734  0.8000000000E+00  0.5000000004E+00  0.1017308328E-03  0.1707000000E+03  0.9975000000E+02 -0.9000000000E+01        30
      34       1  0.3400000000E+00         1    1         1    157334  0.7999999998E+00  0.5000000000E+00  0.3334690077E+00  0.1707000000E+03  0.9975000000E+02 -0.6999999996E+01        17
      34       1  0.3400000000E+00         2    2         1    284734  0.8000000000E+00  0.5000000004E+00  0.1017309944E-03  0.1707000000E+03  0.9975000000E+02 -0.9000000000E+01        30
      35       1  0.3500000000E+00         1    1         1    157334  0.7999999998E+00  0.5000000000E+00  0.3334690079E+00  0.1707000000E+03  0.9975000000E+02 -0.6999999996E+01        17
      35       1  0.3500000000E+00         2    2         1    284734  0.8000000000E+00  0.5000000005E+00  0.1017311560E-03  0.1707000000E+03  0.9975000000E+02 -0.9000000000E+01        30
      36       1  0.3600000000E+00         1    1         1    157334  0.7999999998E+00  0.5000000000E+00  0.3334690081E+00  0.1707000000E+03  0.9975000000E+02 -0.6999999996E+01        17
      36       1  0.3600000000E+00         2    2         1    284734  0.8000000000E+00  0.5000000005E+00  0.1017313176E-03  0.1707000000E+03  0.9975000000E+02 -0.9000000000E+01        30
      37       1  0.3700000000E+00         1    1         1    157334  0.7999999998E+00  0.5000000000E+00  0.3334690083E+00  0.1707000000E+03  0.9975000000E+02 -0.6999999995E+01        17
      37       1  0.3700000000E+00         2    2         1    284734  0.8000000001E+00  0.5000000005E+00  0.1017314792E-03  0.1707000000E+03  0.9975000000E+02 -0.9000000000E+01        30
      38       1  0.3800000000E+00         1    1         1    157334  0.7999999998E+00  0.5000000000E+00  0.3334690086E+00  0.1707000000E+03  0.9975000000E+02 -0.6999999995E+01        17
      38       1  0.3800000000E+00         2    2         1    284734  0.8000000001E+00  0.5000000005E+00  0.1017316408E-03  0.1707000000E+03  0.9975000000E+02 -0.9000000000E+01        30
      39       1  0.3900000000E+00         1    1         1    157334  0.7999999998E+00  0.5000000000E+00  0.3334690088E+00  0.1707000000E+03  0.9975000000E+02 -0.6999999995E+01        17
      39       1  0.3900000000E+00         2    2         1    284734  0.8000000001E+00  0.5000000005E+00  0.1017318024E-03  0.1707000000E+03  0.9975000000E+02 -0.9000000000E+01        30
      40       1  0.4000000000E+00         1    1         1    157334  0.7999999998E+00  0.5000000000E+00  0.3334690090E+00  0.1707000000E+03  0.9975000000E+02 -0.6999999995E+01        17
      40       1  0.4000000000E+00         2    2         1    284734  0.8000000001E+00  0.5000000005E+00  0.1017319640E-03  0.1707000000E+03  0.9975000000E+02 -0.9000000000E+01        30
      41       1  0.4100000000E+00         1    1         1    157334  0.7999999998E+00  0.5000000000E+00  0.3334690092E+00  0.1707000000E+03  0.9975000000E+02 -0.6999999995E+01        17
      41       1  0.4100000000E+00         2    2         1    284734  0.8000000001E+00  0.5000000005E+00  0.1017321256E-03  0.1707000000E+03  0.9975000000E+02 -0.9000000000E+01        30
      42       1  0.4200000000E+00         1    1         1    157334  0.7999999998E+00  0.5000000000E+00  0.3334690095E+00  0.1707000000E+03  0.9975000000E+02 -0.6999999995E+01        17
      42       1  0.4200000000E+00         2    2         1    284734  0.8000000001E+00  0.5000000005E+00  0.1017322872E-03  0.1707000000E+03  0.9975000000E+02 -0.9000000000E+01        30
      43       1  0.4300000000E+00         1    1         1    157334  0.7999999998E+00  0.5000000000E+00  0.3334690097E+00  0.1707000000E+03  0.9975000000E+02 -0.6999999995E+01        17
      43       1  0.4300000000E+00         2    2         1    284734  0.8000000001E+00  0.5000000006E+00  0.1017324488E-03  0.1707000000E+03  0.9975000000E+02 -0.9000000000E+01        30
      44       1  0.4400000000E+00         1    1         1    157334  0.7999999997E+00  0.5000000000E+00  0.3334690099E+00  0.1707000000E+03  0.9975000000E+02 -0.6999999995E+01        17
      44       1  0.4400000000E+00         2    2         1    284734  0.8000000001E+00  0.5000000006E+00  0.1017326104E-03  0.1707000000E+03  0.9975000000E+02 -0.9000000000E+01        30
      45       1  0.4500000000E+00         1    1         1    157334  0.7999999997E+00  0.5000000000E+00  0.3334690101E+00  0.1707000000E+03  0.9975000000E+02 -0.6999999995E+01        17
      45       1  0.4500000000E+00         2    2         1    284734  0.8000000001E+00  0.5000000006E+00  0.1017327720E-03  0.1707000000E+03  0.9975000000E+02 -0.9000000000E+01        30
      46       1  0.4600000000E+00         1    1         1    157334  0.7999999997E+00  0.5000000000E+00  0.3334690104E+00  0.1707000000E+03  0.9975000000E+02 -0.6999999995E+01        17
      46       1  0.4600000000E+00         2    2         1    284734  0.8000000001E+00  0.5000000006E+00  0.1017329336E-03  0.1707000000E+03  0.9975000000E+02 -0.9000000000E+01        30
      47       1  0.4700000000E+00         1    1         1    157334  0.7999999997E+00  0.5000000000E+00  0.3334690106E+00  0.1707000000E+03  0.9975000000E+02 -0.6999999995E+01        17
      47       1  0.4700000000E+00         2    2         1    284734  0.8000000001E+00  0.5000000006E+00  0.1017330952E-03  0.1707000000E+03  0.9975000000E+02 -0.9000000000E+01        30
      48       1  0.4800000000E+00         1    1         1    157334  0.7999999997E+00  0.5000000000E+00  0.3334690108E+00  0.1707000000E+03  0.9975000000E+02 -0.6999999995E+01        17
      48       1  0.4800000000E+00         2    2         1    284734  0.8000000001E+00  0.5000000006E+00  0.1017332568E-03  0.1707000000E+03  0.9975000000E+02 -0.9000000000E+01        30
      49       1  0.4900000000E+00         1    1         1    157334  0.7999999997E+00  0.5000000001E+00  0.3334690110E+00  0.1707000000E+03  0.9975000000E+02 -0.6999999995E+01        17
      49       1  0.4900000000E+00         2    2         1    284734  0.8000000001E+00  0.5000000006E+00  0.1017334184E-03  0.1707000000E+03  0.9975000000E+02 -0.9000000000E+01        30
      50       1  0.5000000000E+00         1    1         1    157334  0.7999999997E+00  0.5000000001E+00  0.3334690113E+00  0.1707000000E+03  0.9975000000E+02 -0.6999999995E+01        17
      50       1  0.5000000000E+00         2    2         1    284734  0.8000000001E+00  0.5000000007E+00  0.1017335800E-03  0.1707000000E+03  0.9975000000E+02 -0.9000000000E+01        30
      51       1  0.5100000000E+00         1    1         1    157334  0.7999999997E+00  0.5000000001E+00  0.3334690115E+00  0.1707000000E+03  0.9975000000E+02 -0.6999999995E+01        17
      51       1  0.5100000000E+00         2    2         1    284734  0.8000000001E+00  0.5000000007E+00  0.1017337416E-03  0.1707000000E+03  0.9975000000E+02 -0.9000000000E+01        30
      52       1  0.5200000000E+00         1    1         1    157334  0.7999999997E+00  0.5000000001E+00  0.3334690117E+00  0.1707000000E+03  0.9975000000E+02 -0.6999999995E+01        17
      52       1  0.5200000000E+00         2    2         1    284734  0.8000000001E+00  0.5000000007E+00  0.1017339032E-03  0.1707000000E+03  0.9975000000E+02 -0.9000000000E+01        30
      53       1  0.5300000000E+00         1    1         1    157334  0.7999999997E+00  0.5000000001E+00  0.3334690119E+00  0.1707000000E+03  0.9975000000E+02 -0.6999999995E+01        17
      53       1  0.5300000000E+00         2    2         1    284734  0.8000000001E+00  0.5000000007E+00  0.1017340648E-03  0.1707000000E+03  0.9975000000E+02 -0.9000000000E+01        30
      54       1  0.5400000000E+00         1    1         1    157334  0.7999999997E+00  0.5000000001E+00  0.3334690122E+00  0.1707000000E+03  0.9975000000E+02 -0.6999999995E+01        17
      54       1  0.5400000000E+00         2    2         1    284734  0.8000000001E+00  0.5000000007E+00  0.1017342264E-03  0.1707000000E+03  0.9975000000E+02 -0.9000000000E+01        30
      55       1  0.5500000000E+00         1    1         1    157334  0.7999999997E+00  0.5000000001E+00  0.3334690124E+00  0.1707000000E+03  0.9975000000E+02 -0.6999999995E+01        17
      55       1  0.5500000000E+00         2    2         1    284734  0.8000000001E+00  0.5000000007E+00  0.1017343880E-03  0.1707000000E+03  0.9975000000E+02 -0.9000000000E+01        30
      56       1  0.5600000000E+00         1    1         1    157334  0.7999999997E+00  0.5000000001E+00  0.3334690126E+00  0.1707000000E+03  0.9975000000E+02 -0.6999999995E+01        17
      56       1  0.5600000000E+00         2    2         1    284734  0.8000000001E+00  0.5000000007E+00  0.1017345496E-03  0.1707000000E+03  0.9975000000E+02 -0.9000000000E+01        30
      57       1  0.5700000000E+00         1    1         1    157334  0.7999999997E+00  0.5000000001E+00  0.3334690128E+00  0.1707000000E+03  0.9975000000E+02 -0.6999999995E+01        17
      57       1  0.5700000000E+00         2    2         1    284734  0.8000000001E+00  0.5000000007E+00  0.1017347112E-03  0.1707000000E+03  0.9975000000E+02 -0.9000000000E+01        30
      58       1  0.5800000000E+00         1    1         1    157334  0.7999999997E+00  0.5000000001E+00  0.3334690131E+00  0.1707000000E+03  0.9975000000E+02 -0.6999999995E+01        17
      58       1  0.5800000000E+00         2    2         1    284734  0.8000000001E+00  0.5000000008E+00  0.1017348728E-03  0.1707000000E+03  0.9975000000E+02 -0.9000000000E+01        30
      59       1  0.5900000000E+00         1    1         1    157334  0.7999999997E+00  0.5000000001E+00  0.3334690133E+00  0.1707000000E+03  0.9975000000E+02 -0.6999999995E+01        17
      59       1  0.5900000000E+00         2    2         1    284734  0.8000000001E+00  0.5000000008E+00  0.1017350344E-03  0.1707000000E+03  0.9975000000E+02 -0.9000000000E+01        30
      60       1  0.6000000000E+00         1    1         1    157334  0.7999999997E+00  0.5000000001E+00  0.3334690135E+00  0.1707000000E+03  0.9975000000E+02 -0.6999999995E+01        17
      60       1  0.6000000000E+00         2    2         1    284734  0.8000000001E+00  0.5000000008E+00  0.1017351960E-03  0.1707000000E+03  0.9975000000E+02 -0.9000000000E+01        30
      61       1  0.6100000000E+00         1    1         1    157334  0.7999999996E+00  0.5000000001E+00  0.3334690137E+00  0.1707000000E+03  0.9975000000E+02 -0.6999999995E+01        17
      61       1  0.6100000000E+00         2    2         1    284734  0.8000000001E+00  0.5000000008E+00  0.1017353576E-03  0.1707000000E+03  0.9975000000E+02 -0.9000000000E+01        30
      62       1  0.6200000000E+00         1    1         1    157334  0.7999999996E+00  0.5000000001E+00  0.3334690140E+00  0.1707000000E+03  0.9975000000E+02 -0.6999999995E+01        17
      62       1  0.6200000000E+00         2    2         1    284734  0.8000000001E+00  0.5000000008E+00  0.1017355192E-03  0.1707000000E+03  0.9975000000E+02 -0.9000000000E+01        30
      63       1  0.6300000000E+00         1    1         1    157334  0.7999999996E+00  0.5000000001E+00  0.3334690142E+00  0.1707000000E+03  0.9975000000E+02 -0.6999999995E+01        17
      63       1  0.6300000000E+00         2    2         1    284734  0.8000000001E+00  0.5000000008E+00  0.1017356808E-03  0.1707000000E+03  0.9975000000E+02 -0.9000000000E+01        30
      64       1  0.6400000000E+00         1    1         1    157334  0.7999999996E+00  0.5000000001E+00  0.3334690144E+00  0.1707000000E+03  0.9975000000E+02 -0.6999999995E+01        17
      64       1  0.6400000000E+00         2    2         1    284734  0.8000000001E+00  0.5000000008E+00  0.1017358424E-03  0.1707000000E+03  0.9975000000E+02 -0.9000000000E+01        30
      65       1  0.6500000000E+00         1    1         1    157334  0.7999999996E+00  0.5000000001E+00  0.3334690146E+00  0.1707000000E+03  0.9975000000E+02 -0.6999999995E+01        17
      65       1  0.6500000000E+00         2    2         1    284734  0.8000000001E+00  0.5000000008E+00  0.1017360040E-03  0.1707000000E+03  0.9975000000E+02 -0.9000000000E+01        30
      66       1  0.6600000000E+00         1    1         1    157334  0.7999999996E+00  0.5000000001E+00  0.3334690149E+00  0.1707000000E+03  0.9975000000E+02 -0.6999999994E+01        17
      66       1  0.6600000000E+00         2    2         1    284734  0.8000000001E+00  0.5000000009E+00  0.1017361656E-03  0.1707000000E+03  0.9975000000E+02 -0.9000000000E+01        30
      67       1  0.6700000000E+00         1    1         1    157334  0.7999999996E+00  0.5000000001E+00  0.3334690151E+00  0.1707000000E+03  0.9975000000E+02 -0.6999999994E+01        17
      67       1  0.6700000000E+00         2    2         1    284734  0.8000000001E+00  0.5000000009E+00  0.1017363272E-03  0.1707000000E+03  0.9975000000E+02 -0.9000000000E+01        30
      68       1  0.6800000000E+00         1    1         1    157334  0.7999999996E+00  0.5000000001E+00  0.3334690153E+00  0.1707000000E+03  0.9975000000E+02 -0.6999999994E+01        17
      68       1  0.6800000000E+00         2    2         1    284734  0.8000000001E+00  0.5000000009E+00  0.1017364888E-03  0.1707000000E+03  0.9975000000E+02 -0.9000000000E+01        30
      69       1  0.6900000000E+00         1    1         1    157334  0.7999999996E+00  0.5000000001E+00  0.3334690155E+00  0.1707000000E+03  0.9975000000E+02 -0.6999999994E+01        17
      69       1  0.6900000000E+00         2    2         1    284734  0.8000000001E+00  0.5000000009E+00  0.1017366504E-03  0.1707000000E+03  0.9975000000E+02 -0.9000000000E+01        30
      70       1  0.7000000000E+00         1    1         1    157334  0.7999999996E+00  0.5000000001E+00  0.3334690158E+00  0.1707000000E+03  0.9975000000E+02 -0.6999999994E+01        17
      70       1  0.7000000000E+00         2    2         1    284734  0.8000000001E+00  0.5000000009E+00  0.1017368120E-03  0.1707000000E+03  0.9975000000E+02 -0.9000000000E+01        30
      71       1  0.7100000000E+00         1    1         1    157334  0.7999999996E+00  0.5000000001E+00  0.3334690160E+00  0.1707000000E+03  0.9975000000E+02 -0.6999999994E+01        17
      71       1  0.7100000000E+00         2    2         1    284734  0.8000000001E+00  0.5000000009E+00  0.1017369736E-03  0.1707000000E+03  0.9975000000E+02 -0.8999999999E+01        30
      72       1  0.7200000000E+00         1    1         1    157334  0.7999999996E+00  0.5000000001E+00  0.3334690162E+00  0.1707000000E+03  0.9975000000E+02 -0.6999999994E+01        17
      72       1  0.7200000000E+00         2    2         1    284734  0.8000000001E+00  0.5000000009E+00  0.1017371351E-03  0.1707000000E+03  0.9975000000E+02 -0.8999999999E+01        30
      73       1  0.7300000000E+00         1    1         1    157334  0.7999999996E+00  0.5000000001E+00  0.3334690164E+00  0.1707000000E+03  0.9975000000E+02 -0.6999999994E+01        17
      73       1  0.7300000000E+00         2    2         1    284734  0.8000000001E+00  0.5000000010E+00  0.1017372967E-03  0.1707000000E+03  0.9975000000E+02 -0.8999999999E+01        30
      74       1  0.7400000000E+00         1    1         1    157334  0.7999999996E+00  0.5000000001E+00  0.3334690167E+00  0.1707000000E+03  0.9975000000E+02 -0.6999999994E+01        17
      74       1  0.7400000000E+00         2    2         1    284734  0.8000000001E+00  0.5000000010E+00  0.1017374583E-03  0.1707000000E+03  0.9975000000E+02 -0.8999999999E+01        30
      75       1  0.7500000000E+00         1    1         1    157334  0.7999999996E+00  0.5000000001E+00  0.3334690169E+00  0.1707000000E+03  0.9975000000E+02 -0.6999999994E+01        17
      75       1  0.7500000000E+00         2    2         1    284734  0.8000000001E+00  0.5000000010E+00  0.1017376199E-03  0.1707000000E+03  0.9975000000E+02 -0.8999999999E+01        30
      76       1  0.7600000000E+00         1    1         1    157334  0.7999999996E+00  0.5000000001E+00  0.3334690171E+00  0.1707000000E+03  0.9975000000E+02 -0.6999999994E+01        17
      76       1  0.7600000000E+00         2    2         1    284734  0.8000000001E+00  0.5000000010E+00  0.1017377815E-03  0.1707000000E+03  0.9975000000E+02 -0.8999999999E+01        30
      77       1  0.7700000000E+00         1    1         1    157334  0.7999999996E+00  0.5000000001E+00  0.3334690173E+00  0.1707000000E+03  0.9975000000E+02 -0.6999999994E+01        17
      77       1  0.7700000000E+00         2    2         1    284734  0.8000000001E+00  0.5000000010E+00  0.1017379431E-03  0.1707000000E+03  0.9975000000E+02 -0.8999999999E+01        30
      78       1  0.7800000000E+00         1    1         1    157334  0.7999999996E+00  0.5000000001E+00  0.3334690176E+00  0.1707000000E+03  0.9975000000E+02 -0.6999999994E+01        17
      78       1  0.7800000000E+00         2    2         1    284734  0.8000000001E+00  0.5000000010E+00  0.1017381047E-03  0.1707000000E+03  0.9975000000E+02 -0.8999999999E+01        30