# File generated by Flopy version 3.9.2 on 02/20/2025 at 16:09:45.
BEGIN options
END options

BEGIN griddata
  strt
    CONSTANT       1.00000000
END griddata

