# File generated by Flopy version 3.9.2 on 02/20/2025 at 15:24:36.
BEGIN options
  SAVE_FLOWS
END options

BEGIN dimensions
  MAXBOUND  180
END dimensions

BEGIN period  1
  2 1 1 10
  2 2 1 10
  2 3 1 10
  2 4 1 10
  2 5 1 10
  2 6 1 10
  2 7 1 10
  2 8 1 10
  2 9 1 10
  2 10 1 10
  3 1 1 10
  3 2 1 10
  3 3 1 10
  3 4 1 10
  3 5 1 10
  3 6 1 10
  3 7 1 10
  3 8 1 10
  3 9 1 10
  3 10 1 10
  4 1 1 10
  4 2 1 10
  4 3 1 10
  4 4 1 10
  4 5 1 10
  4 6 1 10
  4 7 1 10
  4 8 1 10
  4 9 1 10
  4 10 1 10
  5 1 1 10
  5 2 1 10
  5 3 1 10
  5 4 1 10
  5 5 1 10
  5 6 1 10
  5 7 1 10
  5 8 1 10
  5 9 1 10
  5 10 1 10
  6 1 1 10
  6 2 1 10
  6 3 1 10
  6 4 1 10
  6 5 1 10
  6 6 1 10
  6 7 1 10
  6 8 1 10
  6 9 1 10
  6 10 1 10
  7 1 1 10
  7 2 1 10
  7 3 1 10
  7 4 1 10
  7 5 1 10
  7 6 1 10
  7 7 1 10
  7 8 1 10
  7 9 1 10
  7 10 1 10
  8 1 1 10
  8 2 1 10
  8 3 1 10
  8 4 1 10
  8 5 1 10
  8 6 1 10
  8 7 1 10
  8 8 1 10
  8 9 1 10
  8 10 1 10
  9 1 1 10
  9 2 1 10
  9 3 1 10
  9 4 1 10
  9 5 1 10
  9 6 1 10
  9 7 1 10
  9 8 1 10
  9 9 1 10
  9 10 1 10
  10 1 1 10
  10 2 1 10
  10 3 1 10
  10 4 1 10
  10 5 1 10
  10 6 1 10
  10 7 1 10
  10 8 1 10
  10 9 1 10
  10 10 1 10
  2 1 20 0
  2 2 20 0
  2 3 20 0
  2 4 20 0
  2 5 20 0
  2 6 20 0
  2 7 20 0
  2 8 20 0
  2 9 20 0
  2 10 20 0
  3 1 20 0
  3 2 20 0
  3 3 20 0
  3 4 20 0
  3 5 20 0
  3 6 20 0
  3 7 20 0
  3 8 20 0
  3 9 20 0
  3 10 20 0
  4 1 20 0
  4 2 20 0
  4 3 20 0
  4 4 20 0
  4 5 20 0
  4 6 20 0
  4 7 20 0
  4 8 20 0
  4 9 20 0
  4 10 20 0
  5 1 20 0
  5 2 20 0
  5 3 20 0
  5 4 20 0
  5 5 20 0
  5 6 20 0
  5 7 20 0
  5 8 20 0
  5 9 20 0
  5 10 20 0
  6 1 20 0
  6 2 20 0
  6 3 20 0
  6 4 20 0
  6 5 20 0
  6 6 20 0
  6 7 20 0
  6 8 20 0
  6 9 20 0
  6 10 20 0
  7 1 20 0
  7 2 20 0
  7 3 20 0
  7 4 20 0
  7 5 20 0
  7 6 20 0
  7 7 20 0
  7 8 20 0
  7 9 20 0
  7 10 20 0
  8 1 20 0
  8 2 20 0
  8 3 20 0
  8 4 20 0
  8 5 20 0
  8 6 20 0
  8 7 20 0
  8 8 20 0
  8 9 20 0
  8 10 20 0
  9 1 20 0
  9 2 20 0
  9 3 20 0
  9 4 20 0
  9 5 20 0
  9 6 20 0
  9 7 20 0
  9 8 20 0
  9 9 20 0
  9 10 20 0
  10 1 20 0
  10 2 20 0
  10 3 20 0
  10 4 20 0
  10 5 20 0
  10 6 20 0
  10 7 20 0
  10 8 20 0
  10 9 20 0
  10 10 20 0
END period  1

