# File generated by Flopy version 3.9.1 on 02/19/2025 at 18:18:15.
BEGIN options
  SAVE_FLOWS
  SAVE_SPECIFIC_DISCHARGE
  SAVE_SATURATION
END options

BEGIN griddata
  icelltype
    CONSTANT  0
  k
    INTERNAL  FACTOR  1.0
    2.27945571E-06  1.17439614E-07  2.64580843E-05  1.45720162E-06  1.84428769E-06  1.79516187E-04  6.67839700E-05  2.87025939E-05  1.43343236E-06  9.93506067E-07  8.80718965E-08  1.73313118E-06  6.59237605E-05  2.89975598E-06  1.54963125E-05  1.35888129E-07  3.14526784E-08  4.89997257E-06  1.09085868E-05  2.20675793E-05
    5.87545031E-07  5.22220578E-08  8.96197221E-07  1.02991333E-04  1.12101762E-05  6.93405674E-07  1.14041876E-05  2.78818412E-07  3.54770610E-07  5.82135878E-05  1.44608056E-05  6.40042472E-07  8.42894510E-05  8.83872080E-07  1.16418814E-05  3.45795681E-05  4.97215560E-07  7.41252544E-06  6.46111173E-05  3.21202611E-05
    8.02952977E-07  1.74339316E-05  5.33706694E-05  9.89307662E-06  1.42127750E-04  5.99872220E-06  1.67531099E-05  3.88024212E-05  8.46407384E-05  3.60269054E-05  9.59796041E-05  1.05925840E-04  1.12468989E-04  1.23809857E-04  1.53956953E-04  6.51203687E-05  1.63371703E-04  6.53238057E-05  3.06057083E-06  9.18544500E-08
    2.78018312E-06  2.63416376E-07  3.23888433E-06  3.11237606E-07  1.27876204E-07  1.54099524E-04  1.50226851E-04  5.98637028E-05  4.26084171E-05  4.77598464E-05  4.32115783E-05  1.19267420E-04  3.25898515E-05  1.52956708E-04  5.75967814E-05  7.14462123E-06  4.45324996E-06  7.53453782E-06  6.88296633E-06  1.17820309E-06
    8.36045550E-06  8.04564202E-06  8.71160401E-06  8.55480988E-06  7.54879824E-06  6.47110420E-06  8.01150346E-06  6.49459774E-06  4.19732105E-07  2.97866943E-07  3.28996784E-06  1.44860952E-06  5.75519767E-06  2.29267251E-06  4.57421114E-07  2.11168992E-06  4.11845113E-07  3.65709994E-06  8.50232376E-06  6.87848660E-06
    6.11839313E-06  6.46379874E-06  5.97291518E-06  8.59149854E-06  6.10235049E-06  5.22319682E-06  3.45969842E-06  5.02199503E-06  4.05010132E-06  1.82724119E-06  3.89904909E-06  3.05905103E-06  3.99964092E-06  4.59764630E-06  3.75518797E-06  4.43634180E-06  3.64225191E-06  2.97625488E-06  1.15950147E-05  2.94363091E-06
    1.69015416E-05  2.09302083E-07  6.68824709E-07  2.47471687E-07  1.16999246E-06  1.55093461E-05  2.53605744E-07  3.99508676E-07  1.97167450E-06  1.79766293E-06  3.42035842E-06  3.05925439E-06  9.56310629E-07  1.22871981E-06  1.13317325E-05  2.83644192E-06  1.87674393E-05  3.24635200E-06  2.75545369E-06  3.17878802E-06
    2.64114337E-06  2.71446558E-06  7.00875228E-06  2.71202695E-06  9.87263555E-06  1.04515117E-05  9.50974323E-06  1.58460928E-05  1.48270826E-05  1.02223616E-05  1.43239413E-05  1.61511397E-05  1.65158707E-05  1.08628308E-05  1.42314370E-05  1.47668856E-05  1.49814490E-05  4.19994384E-05  5.53717531E-05  6.15283608E-05
    6.89567407E-05  2.33949365E-05  4.69887067E-05  2.78348808E-05  6.97089806E-05  7.94428432E-05  8.26880571E-05  8.76750602E-05  8.87553998E-05  5.33356707E-05  6.87937732E-05  6.68247312E-05  7.98070131E-05  8.23274313E-05  8.31637601E-05  8.78395051E-05  8.59501219E-05  8.03566496E-05  7.87636253E-05  8.04007053E-05
    7.74229185E-05  8.46845168E-05  6.83380454E-05  7.79488554E-05  6.30715245E-05  7.61507361E-05  5.95092687E-05  5.84391221E-05  5.58346913E-05  5.57272541E-05  5.43997989E-05  3.12016271E-05  1.34614179E-04  5.50619621E-05  6.30789501E-05  6.52357357E-05  6.75063594E-05  6.54439551E-05  7.30371924E-05  7.64788616E-05
    9.00135783E-05  8.43273198E-05  9.29251245E-05  1.39967950E-04  3.52538372E-04  1.50804508E-04  3.18529206E-04  1.15974706E-04  4.02542352E-05  1.45823154E-04  2.07015787E-05  1.86739108E-06  3.72393348E-08  5.40243649E-06  3.67794518E-05  5.38396157E-04  2.44811838E-05  1.24541694E-06  3.00891172E-06  3.33303157E-05
    3.05566896E-05  8.77438502E-06  1.11934709E-05  2.99768293E-05  2.27175769E-05  4.26929280E-05  5.90047277E-05  1.28869388E-06  9.82350648E-05  1.91373065E-05  2.20067732E-05  2.06026801E-05  2.55782026E-05  5.21363664E-05  5.56514049E-05  7.79611278E-05  8.42353597E-05  2.41940848E-05  8.63938208E-05  9.05591204E-05
    8.99653523E-05  9.31937172E-05  6.58312043E-05  8.75340121E-05  8.94308456E-05  9.56031385E-05  1.05641171E-04  1.07166330E-04  1.13594092E-04  1.15324757E-04  9.50073713E-05  1.01279036E-04  9.73155930E-05  1.03624661E-04  1.17689644E-04  1.19510945E-04  1.19361697E-04  1.21220204E-04  4.36034123E-05  9.00033557E-05
    9.88815725E-05  8.74025583E-05  9.56066217E-05  1.01239789E-04  1.01577535E-04  9.46183090E-05  9.44494302E-05  8.30278478E-05  8.74726421E-05  1.05861077E-04  9.61001253E-05  1.13839363E-04  1.00418880E-04  8.76665377E-05  8.14002273E-05  9.07169993E-05  8.30374441E-05  1.17825673E-04  1.00389041E-04  1.19452242E-04
    1.00377093E-04  9.46906938E-05  8.70899460E-05  9.63198071E-05  8.87558027E-05  7.48610564E-05  6.20721263E-05  7.43494324E-05  6.31227214E-05  5.71604718E-05  5.38310660E-05  5.77425957E-05  5.36046345E-05  7.45253833E-05  5.88957188E-05  7.45959396E-05  5.72673703E-05  5.45489029E-05  5.22313292E-05  5.33100577E-05
    5.16892825E-05  9.98978938E-05  8.89090953E-05  9.28101561E-05  8.46163462E-05  9.06219142E-05  8.65148029E-05  8.84157181E-05  8.56299140E-05  7.92540504E-05  7.36013467E-05  7.42849231E-05  6.95218428E-05  7.53315472E-05  7.33208852E-05  7.05421605E-05  6.88027714E-05  7.41744241E-05  5.97854346E-05  7.40061455E-05
    6.08181853E-05  5.41839751E-05  5.02472157E-05  5.45371414E-05  4.96787852E-05  6.60293519E-05  5.50421080E-05  6.30327769E-05  5.28552541E-05  5.22753910E-05  5.09313723E-05  5.13908622E-05  5.14400129E-05  9.95590067E-05  6.87378582E-05  9.94244484E-05  6.83970552E-05  6.73834617E-05  6.09541308E-05  5.98044008E-05
    5.74179303E-05  5.64745537E-05  5.81520200E-05  5.52371576E-05  5.87235213E-05  5.54435714E-05  5.70648976E-05  5.65079921E-05  5.23706857E-05  4.92960014E-05  5.27672328E-05  4.84576505E-05  5.79963488E-05  5.87180018E-05  5.44548802E-05  6.12456156E-05  5.70162288E-05  5.80723302E-05  4.93645710E-05  5.31136690E-05
    2.47775835E-05  2.96170345E-05  5.96479257E-05  6.64177921E-05  5.84346927E-05  6.74919072E-05  7.34417306E-05  8.39766385E-05  7.61479398E-05  8.66871752E-05  5.55300820E-05  6.64893263E-05  5.43995985E-05  6.60911401E-05  7.82134049E-05  9.60065892E-05  7.90528562E-05  9.99517255E-05  9.55904274E-05  1.00487116E-04
    1.00066292E-04  1.05183159E-04  9.62756765E-05  1.06848581E-04  1.07196191E-04  1.09663295E-04  1.08010752E-04  1.03256837E-04  9.71758218E-05  1.01562629E-04  9.72771991E-05  5.35359535E-05  6.26786311E-05  5.31931628E-05  6.13518627E-05  7.36077459E-05  9.40251690E-05  7.15120770E-05  9.17305374E-05  5.04190022E-05
    5.69302188E-05  4.93409356E-05  5.52322165E-05  6.49528622E-05  8.07014887E-05  6.24638605E-05  7.65895942E-05  1.05923269E-04  1.06247661E-04  1.04453744E-04  1.05547925E-04  1.01821621E-04  8.66356555E-05  1.01925485E-04  8.26401784E-05  9.29369744E-05  9.24155227E-05  8.86146773E-05  8.75312492E-05  8.65726976E-05
    7.38785396E-05  8.09608454E-05  7.05828072E-05  1.09656008E-04  1.57044463E-04  9.88087024E-05  1.01916027E-04  9.70232542E-05  9.83049485E-05  1.33561256E-04  2.27015071E-04  9.18928885E-05  1.13690292E-04  7.99762366E-05  1.04635597E-04  1.60240491E-04  4.81068978E-05  5.21784417E-05  4.76196641E-05  5.09939004E-05
    5.74609917E-05  6.84670909E-05  5.55491739E-05  6.54122304E-05  4.85635705E-05  5.06607155E-05  4.89457470E-05  5.05277709E-05  5.31950722E-05  5.80061731E-05  5.22749065E-05  5.52342681E-05  7.58992458E-05  7.42288070E-05  7.12307772E-05  6.93727131E-05  7.02785568E-05  4.34847035E-05  3.44369218E-05  1.57487850E-05
    1.47894672E-05  9.26732999E-06  8.26336578E-06  2.91789699E-05  9.44224231E-06  4.77526449E-06  7.40155439E-06  5.32741408E-05  3.57312249E-05  3.06244283E-06  5.92511846E-07  1.15919746E-04  2.21539824E-05  4.93749630E-06  7.00594353E-06  1.09025929E-05  2.14642857E-06  1.17194710E-07  1.30815137E-06  5.00997333E-04
    1.38543600E-04  5.04392427E-07  2.73649613E-07  5.78622925E-05  9.47748565E-05  6.61394525E-05  4.48789485E-06  7.71757782E-05  4.97690331E-06  1.81524763E-04  1.40313608E-05  8.88927553E-07  7.39589116E-07  1.92321533E-07  4.74321763E-08  1.25173451E-07  5.47697070E-07  1.90320294E-07  4.75902467E-06  9.84903531E-05
    4.29201742E-05  1.25570035E-05  5.51230927E-07  1.81209233E-04  5.26461725E-04  1.44070573E-06  1.94273637E-05  2.91451930E-04  2.20367042E-04  8.66256233E-06  1.14066633E-04  5.15833687E-05  2.55232289E-05  4.81708166E-05  4.52675362E-05  1.51814048E-05  1.74809184E-04  6.72515697E-05  1.56327388E-05  8.95950063E-05
    4.23973032E-04  3.75295551E-05  3.83792395E-04  4.02475039E-06  7.11338702E-06  1.22185595E-08  3.74874786E-07  9.01576988E-05  1.12056812E-04       0.00101062  7.90790229E-06  2.25840196E-06  3.60009102E-07  2.91075508E-07  3.48308148E-07  1.03145046E-07  4.28193873E-07  1.45796845E-06  3.17545215E-05  3.60263658E-05
    1.02279005E-04  7.69034710E-05  5.34460642E-06  8.72503379E-08  4.14749181E-05  1.92507522E-05  3.65702277E-07  1.17936897E-06  5.94307965E-06  1.66374619E-07  4.03419866E-06  3.22351473E-04  6.22232633E-05  4.60344493E-06  1.18142089E-05  4.18274505E-07  9.74435602E-08  3.75796527E-06  1.28930621E-07  4.41027633E-06
    1.46615829E-04  1.17659632E-06  3.46287620E-05  4.12389182E-05  4.55951124E-07  8.29401780E-07  7.58003761E-06  1.74180776E-06  7.36897919E-07  3.34611788E-04  1.77071793E-04  7.35589142E-05  5.20574943E-05  4.80613331E-05  1.65647382E-05  2.44572858E-06  3.28793977E-05  1.03267599E-06  6.77084773E-06  6.15575983E-07
    2.33700460E-07  1.24906910E-07  4.46660568E-07  3.66334531E-07  7.90327092E-07  2.99637470E-07  4.21105160E-07  2.71718242E-07  3.79882115E-07  2.43823771E-07  3.65675905E-07  6.85651337E-07  1.71116344E-06  1.64129929E-06  1.24712546E-05  2.02788520E-05  4.81171996E-06  9.00138931E-05  3.28553335E-05  2.41961760E-06
    6.51930019E-05  2.54180508E-06  2.89211105E-05  2.57890715E-04  1.13693497E-04  1.91905262E-04  1.52091792E-04  1.89029480E-07  7.74520557E-07  1.44239115E-07  1.71843894E-06  1.17126850E-05  5.91453830E-07  1.01596574E-06  9.15936399E-06  1.08806780E-05  1.67316433E-06  4.68954258E-05  3.07484354E-05  8.11011403E-05
    3.59234325E-05  3.86098173E-06  3.33338426E-06  5.83234556E-06  9.13950960E-06  3.09122041E-06  4.59296160E-05  1.38173662E-05  3.14219642E-05  1.70288774E-05  4.23776387E-05  9.79045458E-05  8.71702845E-05  7.96475938E-05  1.00888387E-04  7.53699027E-05  3.94946477E-05  2.03740007E-04  3.05242895E-04  1.14042282E-04
    2.58325513E-04  2.40066131E-04  1.57766897E-04  4.45902512E-04  7.19152200E-05  1.29891430E-05  2.70529702E-06  2.65343056E-06  8.21075996E-08  6.08389948E-07  4.80671652E-07  7.42897640E-06  1.02634873E-05  7.62277691E-05  1.76617306E-05  1.22592101E-07  4.76724737E-08  2.96781133E-07  8.78253995E-06  7.83969864E-05
    2.83828889E-06  1.13931439E-05  1.35278048E-07  1.81369350E-07  6.82197833E-05  3.63689403E-05  5.09418941E-05  3.57137572E-05  1.32314243E-05  1.39000334E-05  1.76575854E-05  2.13697747E-05  1.54033389E-05  1.11180777E-05  1.91828565E-05  1.94454778E-05  2.13260938E-05  2.25926748E-05  5.66191695E-05  5.26322679E-05
    9.81041712E-05  8.49116437E-05  7.75896498E-05  7.25336387E-05  4.29734226E-05  4.65796360E-05  1.88524879E-04  7.69488857E-05  2.43970307E-04  1.02622048E-04  3.67578713E-05  1.22175109E-04  5.56776339E-05  2.33741615E-06  1.11021814E-05  1.92790564E-07  1.46714547E-06  9.90717611E-05  1.75371894E-04  3.01845879E-05
    5.05971363E-05  1.45730773E-04  1.43061502E-04  6.94448751E-05  1.65764495E-04  6.91310466E-06  2.77123656E-05  6.90992472E-05  7.37601640E-05  3.43960352E-05  2.94479428E-05  8.45879577E-05  1.56892822E-04  3.58995983E-05  5.98123858E-05  2.38181406E-05  1.48540325E-05  3.24152557E-05  1.55990774E-05  1.83805792E-05
    3.58053208E-05  1.69459582E-05  2.97748266E-05  1.87993304E-04  1.95545742E-04  1.11526532E-04  2.50920526E-04  5.31535381E-05  1.86059292E-04  1.05559468E-04  6.20317545E-05  2.10518782E-05  1.46172293E-04  5.18532073E-05  2.03085117E-05  3.84328487E-05  2.75136959E-05  8.67049392E-05  1.80550075E-04  7.92047524E-05
    1.33972109E-04  8.12745184E-05  7.02157671E-05  2.98398377E-04  9.05695495E-04  3.42655663E-04  8.76401509E-04  8.72636710E-07  4.18346793E-08  1.52510416E-04  1.84609320E-06  5.88054010E-07  2.22806015E-07  3.76604835E-07  5.28944984E-06  1.18027006E-04       0.00110648  5.80512973E-04  7.89702625E-05  3.35669895E-05
    2.68813302E-07  5.20224261E-07  5.41111338E-07  6.28828926E-07  2.64649287E-05  2.21935228E-05  1.18929390E-06  2.10218907E-06  1.24771645E-04  7.11329826E-07  2.99702229E-05  4.94074256E-04  1.95693375E-05  1.59616914E-06  4.08236449E-08  1.67060147E-05  2.03510264E-04       0.00146675       0.00204640  1.33622351E-04
    3.07886717E-05  3.13441803E-05  1.65184357E-07  1.54728602E-06  1.02203670E-06  1.52806972E-06  2.38808554E-06  6.39883108E-05       0.00126250  5.85606720E-04  2.22074998E-04  1.61081750E-05  7.14839197E-05  1.84991324E-04  3.67190747E-07  8.99893931E-07  1.14802232E-07  6.98872519E-06  7.29154938E-05  6.52858289E-06
    1.27792888E-04  8.14689627E-04       0.00172788       0.00172500  4.08843719E-04  7.71146916E-07  3.82524177E-07  1.12248938E-05  3.43301456E-09  1.98936897E-09  2.56625106E-05  3.71385543E-06  3.05035120E-05  1.89404560E-04  7.07633459E-04  7.76398320E-04  4.82575319E-05  5.62612226E-07  2.14521206E-06  2.59939403E-05
    8.61909089E-06  1.31556124E-05  3.66592593E-07  4.90385797E-06  1.51382906E-04  5.17861950E-06  4.33764738E-04  7.61032713E-04  2.51821125E-06  4.42105968E-08  1.04479383E-05  1.01075313E-05  1.62347023E-05  1.88001990E-05  1.89952180E-08  8.36987321E-05  7.42102151E-04  1.26925590E-06  3.47870448E-05  2.59796215E-04
    2.59840372E-04  2.12738178E-05  2.67009708E-05  8.83183647E-06  1.38112302E-09  1.40870918E-05  2.44172592E-06  1.44841649E-05  8.48632543E-06  4.85902623E-08  3.32230500E-10  1.13023884E-06  1.18168016E-08  1.26671090E-10  5.92831551E-08  1.00483437E-10  1.92494780E-10  3.17562826E-10  2.82859915E-10  8.29596792E-08
    3.46448768E-06  1.88106477E-07  8.27769549E-06  7.90226070E-06  1.47452368E-05  3.13403537E-05  3.90265086E-05  2.13889857E-05  3.11167984E-06  7.61410505E-07  3.35763766E-06  1.89236506E-05  3.08807892E-04  1.98751310E-08  2.79057458E-07  1.00628281E-05  4.67626543E-05  2.51511160E-06  6.98173582E-05  4.71248547E-05
    4.01794332E-08  2.26110329E-07  9.14797292E-07  3.96205033E-06  8.53948821E-07  9.30116586E-06  8.15142907E-06  2.91733406E-05  4.51435882E-04  7.66951122E-04  7.43733717E-04       0.00613326       0.00257074  3.40044579E-05  2.16615653E-05  1.75213841E-05  2.31021263E-06  6.10442132E-05  8.63350140E-05  3.76434570E-06
    9.36373635E-06  3.31483585E-05  9.27803126E-07  8.95426955E-05  2.21959669E-06  2.37322510E-06  8.16227545E-06  2.64097558E-07  7.06613078E-05  7.36077305E-05  1.32407077E-05  6.27142634E-08  8.78491982E-06  1.81461160E-07  2.47188037E-05  3.00127134E-04  1.54869940E-04  1.28050143E-05       0.00186355       0.00118247
         0.00373292       0.00113158       0.00383049  2.70989758E-05  1.89306086E-06  1.07458996E-04  2.62187530E-05  5.10968390E-04  3.25966449E-05  6.77417566E-08  6.83337507E-06  1.80097714E-05  2.32565504E-04  2.22146714E-04  1.70021122E-04  3.94336591E-05  4.71115126E-04  4.02949484E-04  3.72059006E-05  5.61960322E-06
    1.80525415E-07  8.19739015E-08  1.05760825E-07  1.29274995E-05       0.00106400  3.82594422E-05  2.65251874E-04  5.37997576E-05  6.19854146E-07  1.85962373E-07  1.31566882E-09  1.78071913E-05  1.36535473E-04       0.00124081  1.00000000E-10  1.00000000E-10  1.00000000E-10  1.23058443E-10  1.22956572E-10  2.53434646E-10
    2.00803508E-08  1.00000000E-10  1.00000000E-10  1.00657226E-10  1.00000000E-10  1.00000000E-10  2.28008348E-10  1.00000000E-10  1.00000000E-10  1.27856634E-10  1.04407836E-10  1.00000000E-10  1.01680136E-10  1.00000000E-10  1.00000000E-10  1.00000000E-10  1.00230586E-10  1.16482898E-10  1.00000000E-10  1.00000000E-10
    1.00000000E-10  1.00000000E-10  1.00000000E-10  1.00000000E-10  1.00000000E-10  1.00000000E-10  1.00000000E-10  1.00000000E-10  2.58384067E-10  2.15553528E-09  1.00000000E-10  1.08146841E-10  1.05438114E-10  1.00000000E-10  1.00044597E-10  1.49788841E-10  1.00000000E-10  1.00000000E-10  1.00000000E-10  1.00000000E-10
    1.00000000E-10  1.00000000E-10  1.00000000E-10  1.00000000E-10  1.00000000E-10  1.00000000E-10  1.04301767E-10  1.07790854E-10  1.00000000E-10  1.00000000E-10  1.00000000E-10  1.00000000E-10  1.00000000E-10  1.00000000E-10  1.00000000E-10  1.00000000E-10  1.00000000E-10  1.00000000E-10  1.00000000E-10  1.00000000E-10
    1.00000000E-10  1.00000000E-10  1.00000000E-10  1.00000000E-10  1.01446009E-10  1.00000000E-10  1.00000000E-10  1.00000000E-10  1.00000000E-10  1.03060384E-10  1.06440882E-10  1.00000000E-10  4.73038544E-10  1.00000000E-10  1.00000000E-10  1.00000000E-10  1.00000000E-10  1.00000000E-10  1.00000000E-10  1.00000000E-10
    1.00000000E-10  1.08414050E-10  3.58401266E-10  1.51243376E-10  3.90646999E-10  1.00000000E-10  1.00000000E-10  1.00000000E-10  1.00000000E-10  1.00000000E-10  1.00000000E-10  1.00000000E-10  1.00000000E-10  1.00000000E-10  1.12408574E-10  1.11154695E-10  1.00000000E-10  1.00000000E-10  1.00000000E-10  1.00000000E-10
    1.00000000E-10  1.02727028E-10
END griddata

