# File generated by Flopy version 3.9.3 on 09/16/2025 at 10:11:38.
BEGIN options
END options

BEGIN packages
  OC6  test.oc  oc
  IC6  test.ic  ic
  DISV6  test.disv  disv
  NPF6  test.npf  npf
  CHD6  test.chd  chd
END packages

