MODPATH_TIMESERIES_FILE         7         2
    2   0.0000000000E+00  0.0000000000E+00  0.0000000000E+00  0.0000000000E+00
END HEADER
       0       1  0.0000000000E+00         1    1         1     15498  0.2482803000E+00  0.3436160000E+00  0.2707063000E+00  0.1458724204E+03  0.4401542400E+02 -0.7996277218E+01         2
       0       1  0.0000000000E+00         2    2         1     13000  0.4904628000E+00  0.9653651000E+00  0.6047584000E+00  0.1792356942E+03  0.7194804765E+02 -0.7158692110E+01         2
       0       1  0.0000000000E+00         3    3         1     27367  0.6750541000E+00  0.3116575000E+00  0.3825720000E+00  0.1000125812E+03  0.2146748625E+02 -0.1043287906E+02         3
       0       1  0.0000000000E+00         4    4         1     11009  0.8377220000E+00  0.4682206000E+00  0.1455991000E+00  0.1332565830E+03  0.9220233090E+02 -0.8538386881E+01         2
       0       1  0.0000000000E+00         5    5         1     19398  0.4287653000E+00  0.9171315000E+00  0.4770398000E+00  0.1161431479E+03  0.2875697250E+01 -0.7618054312E+01         2
       0       1  0.0000000000E+00         6    6         1     13094  0.4381636000E+00  0.9327257000E+00  0.5856181000E+00  0.1101572454E+03  0.7039908855E+02 -0.7526966715E+01         2
       0       1  0.0000000000E+00         7    7         1     35081  0.3257488000E+00  0.2113362000E+00  0.8507202000E+00  0.1204886232E+03  0.4381700430E+02 -0.1157477896E+02         4
       0       1  0.0000000000E+00         8    8         1     33693  0.7786650000E-02  0.1082880000E+00  0.6761773000E+00  0.1380116800E+03  0.5866243200E+02 -0.1180472603E+02         4
       0       1  0.0000000000E+00         9    9         1     37896  0.7629481000E+00  0.8270857000E+00  0.7037936000E+00  0.1436444221E+03  0.1474062855E+02 -0.1115084819E+02         4
       0       1  0.0000000000E+00        10   10         1     17747  0.1798938000E+00  0.8671042000E+00  0.6439856000E+00  0.1592698407E+03  0.2080065630E+02 -0.7609287597E+01         2
       0       1  0.0000000000E+00        11   11         1     10334  0.8000000000E+00  0.5000000000E+00  0.2979856000E+00  0.1707000000E+03  0.9975000000E+02 -0.8999999762E+01         2
       1       1  0.1000000000E-01         1    1         1     15498  0.2482802998E+00  0.3436160000E+00  0.2707062993E+00  0.1458724204E+03  0.4401542400E+02 -0.7996277219E+01         2
       1       1  0.1000000000E-01         2    2         1     13000  0.4904627998E+00  0.9653650999E+00  0.6047584000E+00  0.1792356942E+03  0.7194804765E+02 -0.7158692110E+01         2
       1       1  0.1000000000E-01         3    3         1     27367  0.6750524955E+00  0.3116560200E+00  0.3825719999E+00  0.1000125787E+03  0.2146748403E+02 -0.1043287907E+02         3
       1       1  0.1000000000E-01         4    4         1     11009  0.8377219999E+00  0.4682206000E+00  0.1455990999E+00  0.1332565830E+03  0.9220233090E+02 -0.8538386882E+01         2
       1       1  0.1000000000E-01         5    5         1     19398  0.4287653000E+00  0.9171315000E+00  0.4770397999E+00  0.1161431479E+03  0.2875697250E+01 -0.7618054312E+01         2
       1       1  0.1000000000E-01         6    6         1     13094  0.4381635999E+00  0.9327257000E+00  0.5856180990E+00  0.1101572454E+03  0.7039908855E+02 -0.7526966718E+01         2
       1       1  0.1000000000E-01         7    7         1     35081  0.3257488000E+00  0.2113362000E+00  0.8507202000E+00  0.1204886232E+03  0.4381700430E+02 -0.1157477896E+02         4
       1       1  0.1000000000E-01         8    8         1     33693  0.7786650000E-02  0.1082880000E+00  0.6761773000E+00  0.1380116800E+03  0.5866243200E+02 -0.1180472603E+02         4
       1       1  0.1000000000E-01         9    9         1     37896  0.7629481000E+00  0.8270857000E+00  0.7037936000E+00  0.1436444221E+03  0.1474062855E+02 -0.1115084819E+02         4
       1       1  0.1000000000E-01        10   10         1     17747  0.1798937999E+00  0.8671042000E+00  0.6439855998E+00  0.1592698407E+03  0.2080065630E+02 -0.7609287597E+01         2
       1       1  0.1000000000E-01        11   11         1     10334  0.8000000000E+00  0.5000000000E+00  0.2979856000E+00  0.1707000000E+03  0.9975000000E+02 -0.8999999762E+01         2
       2       1  0.2000000000E-01         1    1         1     15498  0.2482802997E+00  0.3436159999E+00  0.2707062985E+00  0.1458724204E+03  0.4401542400E+02 -0.7996277221E+01         2
       2       1  0.2000000000E-01         2    2         1     13000  0.4904627997E+00  0.9653650999E+00  0.6047584000E+00  0.1792356942E+03  0.7194804765E+02 -0.7158692110E+01         2
       2       1  0.2000000000E-01         3    3         1     27367  0.6750508911E+00  0.3116545399E+00  0.3825719997E+00  0.1000125763E+03  0.2146748181E+02 -0.1043287907E+02         3
       2       1  0.2000000000E-01         4    4         1     11009  0.8377219999E+00  0.4682206001E+00  0.1455990999E+00  0.1332565830E+03  0.9220233090E+02 -0.8538386882E+01         2
       2       1  0.2000000000E-01         5    5         1     19398  0.4287652999E+00  0.9171314999E+00  0.4770397998E+00  0.1161431479E+03  0.2875697250E+01 -0.7618054312E+01         2
       2       1  0.2000000000E-01         6    6         1     13094  0.4381635999E+00  0.9327257000E+00  0.5856180980E+00  0.1101572454E+03  0.7039908855E+02 -0.7526966720E+01         2
       2       1  0.2000000000E-01         7    7         1     35081  0.3257488000E+00  0.2113362000E+00  0.8507202000E+00  0.1204886232E+03  0.4381700430E+02 -0.1157477896E+02         4
       2       1  0.2000000000E-01         8    8         1     33693  0.7786650000E-02  0.1082880000E+00  0.6761773000E+00  0.1380116800E+03  0.5866243200E+02 -0.1180472603E+02         4
       2       1  0.2000000000E-01         9    9         1     37896  0.7629481000E+00  0.8270857000E+00  0.7037936000E+00  0.1436444221E+03  0.1474062855E+02 -0.1115084819E+02         4
       2       1  0.2000000000E-01        10   10         1     17747  0.1798937999E+00  0.8671042001E+00  0.6439855996E+00  0.1592698407E+03  0.2080065630E+02 -0.7609287598E+01         2
       2       1  0.2000000000E-01        11   11         1     10334  0.8000000000E+00  0.5000000000E+00  0.2979856000E+00  0.1707000000E+03  0.9975000000E+02 -0.8999999762E+01         2
       3       1  0.3000000000E-01         1    1         1     15498  0.2482802995E+00  0.3436159999E+00  0.2707062978E+00  0.1458724204E+03  0.4401542400E+02 -0.7996277222E+01         2
       3       1  0.3000000000E-01         2    2         1     13000  0.4904627995E+00  0.9653650998E+00  0.6047584000E+00  0.1792356942E+03  0.7194804765E+02 -0.7158692110E+01         2
       3       1  0.3000000000E-01         3    3         1     27367  0.6750492866E+00  0.3116530599E+00  0.3825719996E+00  0.1000125739E+03  0.2146747959E+02 -0.1043287907E+02         3
       3       1  0.3000000000E-01         4    4         1     11009  0.8377219998E+00  0.4682206001E+00  0.1455990998E+00  0.1332565830E+03  0.9220233090E+02 -0.8538386882E+01         2
       3       1  0.3000000000E-01         5    5         1     19398  0.4287652999E+00  0.9171314999E+00  0.4770397997E+00  0.1161431479E+03  0.2875697250E+01 -0.7618054312E+01         2
       3       1  0.3000000000E-01         6    6         1     13094  0.4381635998E+00  0.9327257000E+00  0.5856180969E+00  0.1101572454E+03  0.7039908855E+02 -0.7526966723E+01         2
       3       1  0.3000000000E-01         7    7         1     35081  0.3257488000E+00  0.2113362000E+00  0.8507202000E+00  0.1204886232E+03  0.4381700430E+02 -0.1157477896E+02         4
       3       1  0.3000000000E-01         8    8         1     33693  0.7786650000E-02  0.1082880000E+00  0.6761773000E+00  0.1380116800E+03  0.5866243200E+02 -0.1180472603E+02         4
       3       1  0.3000000000E-01         9    9         1     37896  0.7629481000E+00  0.8270857000E+00  0.7037936000E+00  0.1436444221E+03  0.1474062855E+02 -0.1115084819E+02         4
       3       1  0.3000000000E-01        10   10         1     17747  0.1798937998E+00  0.8671042001E+00  0.6439855994E+00  0.1592698407E+03  0.2080065630E+02 -0.7609287598E+01         2
       3       1  0.3000000000E-01        11   11         1     10334  0.7999999999E+00  0.5000000000E+00  0.2979856001E+00  0.1707000000E+03  0.9975000000E+02 -0.8999999762E+01         2
       4       1  0.4000000000E-01         1    1         1     15498  0.2482802993E+00  0.3436159999E+00  0.2707062970E+00  0.1458724204E+03  0.4401542400E+02 -0.7996277224E+01         2
       4       1  0.4000000000E-01         2    2         1     13000  0.4904627994E+00  0.9653650998E+00  0.6047584000E+00  0.1792356942E+03  0.7194804765E+02 -0.7158692110E+01         2
       4       1  0.4000000000E-01         3    3         1     27367  0.6750476821E+00  0.3116515799E+00  0.3825719995E+00  0.1000125715E+03  0.2146747737E+02 -0.1043287907E+02         3
       4       1  0.4000000000E-01         4    4         1     11009  0.8377219997E+00  0.4682206002E+00  0.1455990997E+00  0.1332565830E+03  0.9220233090E+02 -0.8538386882E+01         2
       4       1  0.4000000000E-01         5    5         1     19398  0.4287652998E+00  0.9171314999E+00  0.4770397997E+00  0.1161431479E+03  0.2875697250E+01 -0.7618054312E+01         2
       4       1  0.4000000000E-01         6    6         1     13094  0.4381635998E+00  0.9327257000E+00  0.5856180959E+00  0.1101572454E+03  0.7039908855E+02 -0.7526966726E+01         2
       4       1  0.4000000000E-01         7    7         1     35081  0.3257488000E+00  0.2113362000E+00  0.8507202000E+00  0.1204886232E+03  0.4381700430E+02 -0.1157477896E+02         4
       4       1  0.4000000000E-01         8    8         1     33693  0.7786650000E-02  0.1082880000E+00  0.6761773000E+00  0.1380116800E+03  0.5866243200E+02 -0.1180472603E+02         4
       4       1  0.4000000000E-01         9    9         1     37896  0.7629481000E+00  0.8270857000E+00  0.7037936000E+00  0.1436444221E+03  0.1474062855E+02 -0.1115084819E+02         4
       4       1  0.4000000000E-01        10   10         1     17747  0.1798937997E+00  0.8671042001E+00  0.6439855992E+00  0.1592698407E+03  0.2080065630E+02 -0.7609287599E+01         2
       4       1  0.4000000000E-01        11   11         1     10334  0.7999999999E+00  0.5000000000E+00  0.2979856001E+00  0.1707000000E+03  0.9975000000E+02 -0.8999999762E+01         2
       5       1  0.5000000000E-01         1    1         1     15498  0.2482802992E+00  0.3436159999E+00  0.2707062963E+00  0.1458724204E+03  0.4401542400E+02 -0.7996277225E+01         2
       5       1  0.5000000000E-01         2    2         1     13000  0.4904627992E+00  0.9653650997E+00  0.6047584000E+00  0.1792356942E+03  0.7194804765E+02 -0.7158692110E+01         2
       5       1  0.5000000000E-01         3    3         1     27367  0.6750460777E+00  0.3116500998E+00  0.3825719993E+00  0.1000125691E+03  0.2146747515E+02 -0.1043287907E+02         3
       5       1  0.5000000000E-01         4    4         1     11009  0.8377219996E+00  0.4682206002E+00  0.1455990997E+00  0.1332565830E+03  0.9220233090E+02 -0.8538386882E+01         2
       5       1  0.5000000000E-01         5    5         1     19398  0.4287652998E+00  0.9171314999E+00  0.4770397996E+00  0.1161431479E+03  0.2875697250E+01 -0.7618054313E+01         2
       5       1  0.5000000000E-01         6    6         1     13094  0.4381635997E+00  0.9327257000E+00  0.5856180949E+00  0.1101572454E+03  0.7039908855E+02 -0.7526966729E+01         2
       5       1  0.5000000000E-01         7    7         1     35081  0.3257488000E+00  0.2113362000E+00  0.8507202000E+00  0.1204886232E+03  0.4381700430E+02 -0.1157477896E+02         4
       5       1  0.5000000000E-01         8    8         1     33693  0.7786650000E-02  0.1082880000E+00  0.6761773000E+00  0.1380116800E+03  0.5866243200E+02 -0.1180472603E+02         4
       5       1  0.5000000000E-01         9    9         1     37896  0.7629481000E+00  0.8270857000E+00  0.7037936000E+00  0.1436444221E+03  0.1474062855E+02 -0.1115084819E+02         4
       5       1  0.5000000000E-01        10   10         1     17747  0.1798937997E+00  0.8671042002E+00  0.6439855990E+00  0.1592698407E+03  0.2080065630E+02 -0.7609287600E+01         2
       5       1  0.5000000000E-01        11   11         1     10334  0.7999999999E+00  0.5000000000E+00  0.2979856001E+00  0.1707000000E+03  0.9975000000E+02 -0.8999999762E+01         2
       6       1  0.6000000000E-01         1    1         1     15498  0.2482802990E+00  0.3436159998E+00  0.2707062955E+00  0.1458724204E+03  0.4401542400E+02 -0.7996277226E+01         2
       6       1  0.6000000000E-01         2    2         1     13000  0.4904627990E+00  0.9653650997E+00  0.6047584000E+00  0.1792356942E+03  0.7194804765E+02 -0.7158692110E+01         2
       6       1  0.6000000000E-01         3    3         1     27367  0.6750444732E+00  0.3116486198E+00  0.3825719992E+00  0.1000125667E+03  0.2146747293E+02 -0.1043287907E+02         3
       6       1  0.6000000000E-01         4    4         1     11009  0.8377219996E+00  0.4682206002E+00  0.1455990996E+00  0.1332565830E+03  0.9220233090E+02 -0.8538386882E+01         2
       6       1  0.6000000000E-01         5    5         1     19398  0.4287652997E+00  0.9171314998E+00  0.4770397995E+00  0.1161431479E+03  0.2875697250E+01 -0.7618054313E+01         2
       6       1  0.6000000000E-01         6    6         1     13094  0.4381635996E+00  0.9327257000E+00  0.5856180939E+00  0.1101572454E+03  0.7039908855E+02 -0.7526966731E+01         2
       6       1  0.6000000000E-01         7    7         1     35081  0.3257488000E+00  0.2113362000E+00  0.8507202000E+00  0.1204886232E+03  0.4381700430E+02 -0.1157477896E+02         4
       6       1  0.6000000000E-01         8    8         1     33693  0.7786650000E-02  0.1082880000E+00  0.6761773000E+00  0.1380116800E+03  0.5866243200E+02 -0.1180472603E+02         4
       6       1  0.6000000000E-01         9    9         1     37896  0.7629481000E+00  0.8270857000E+00  0.7037936000E+00  0.1436444221E+03  0.1474062855E+02 -0.1115084819E+02         4
       6       1  0.6000000000E-01        10   10         1     17747  0.1798937996E+00  0.8671042002E+00  0.6439855989E+00  0.1592698407E+03  0.2080065630E+02 -0.7609287600E+01         2
       6       1  0.6000000000E-01        11   11         1     10334  0.7999999999E+00  0.5000000000E+00  0.2979856001E+00  0.1707000000E+03  0.9975000000E+02 -0.8999999762E+01         2
       7       1  0.7000000000E-01         1    1         1     15498  0.2482802988E+00  0.3436159998E+00  0.2707062948E+00  0.1458724204E+03  0.4401542400E+02 -0.7996277228E+01         2
       7       1  0.7000000000E-01         2    2         1     13000  0.4904627989E+00  0.9653650996E+00  0.6047584000E+00  0.1792356942E+03  0.7194804765E+02 -0.7158692110E+01         2
       7       1  0.7000000000E-01         3    3         1     27367  0.6750428687E+00  0.3116471398E+00  0.3825719991E+00  0.1000125643E+03  0.2146747071E+02 -0.1043287907E+02         3
       7       1  0.7000000000E-01         4    4         1     11009  0.8377219995E+00  0.4682206003E+00  0.1455990995E+00  0.1332565830E+03  0.9220233090E+02 -0.8538386883E+01         2
       7       1  0.7000000000E-01         5    5         1     19398  0.4287652997E+00  0.9171314998E+00  0.4770397994E+00  0.1161431479E+03  0.2875697250E+01 -0.7618054313E+01         2
       7       1  0.7000000000E-01         6    6         1     13094  0.4381635996E+00  0.9327257001E+00  0.5856180928E+00  0.1101572454E+03  0.7039908855E+02 -0.7526966734E+01         2
       7       1  0.7000000000E-01         7    7         1     35081  0.3257488000E+00  0.2113362000E+00  0.8507202000E+00  0.1204886232E+03  0.4381700430E+02 -0.1157477896E+02         4
       7       1  0.7000000000E-01         8    8         1     33693  0.7786650000E-02  0.1082880000E+00  0.6761773000E+00  0.1380116800E+03  0.5866243200E+02 -0.1180472603E+02         4
       7       1  0.7000000000E-01         9    9         1     37896  0.7629481000E+00  0.8270857000E+00  0.7037936000E+00  0.1436444221E+03  0.1474062855E+02 -0.1115084819E+02         4
       7       1  0.7000000000E-01        10   10         1     17747  0.1798937996E+00  0.8671042002E+00  0.6439855987E+00  0.1592698407E+03  0.2080065630E+02 -0.7609287601E+01         2
       7       1  0.7000000000E-01        11   11         1     10334  0.7999999998E+00  0.5000000000E+00  0.2979856002E+00  0.1707000000E+03  0.9975000000E+02 -0.8999999762E+01         2
       8       1  0.8000000000E-01         1    1         1     15498  0.2482802986E+00  0.3436159998E+00  0.2707062941E+00  0.1458724204E+03  0.4401542400E+02 -0.7996277229E+01         2
       8       1  0.8000000000E-01         2    2         1     13000  0.4904627987E+00  0.9653650996E+00  0.6047584001E+00  0.1792356942E+03  0.7194804765E+02 -0.7158692110E+01         2
       8       1  0.8000000000E-01         3    3         1     27367  0.6750412643E+00  0.3116456598E+00  0.3825719989E+00  0.1000125619E+03  0.2146746849E+02 -0.1043287907E+02         3
       8       1  0.8000000000E-01         4    4         1     11009  0.8377219994E+00  0.4682206003E+00  0.1455990995E+00  0.1332565830E+03  0.9220233090E+02 -0.8538386883E+01         2
       8       1  0.8000000000E-01         5    5         1     19398  0.4287652996E+00  0.9171314998E+00  0.4770397993E+00  0.1161431479E+03  0.2875697250E+01 -0.7618054313E+01         2
       8       1  0.8000000000E-01         6    6         1     13094  0.4381635995E+00  0.9327257001E+00  0.5856180918E+00  0.1101572454E+03  0.7039908855E+02 -0.7526966737E+01         2
       8       1  0.8000000000E-01         7    7         1     35081  0.3257488000E+00  0.2113362000E+00  0.8507202000E+00  0.1204886232E+03  0.4381700430E+02 -0.1157477896E+02         4
       8       1  0.8000000000E-01         8    8         1     33693  0.7786650000E-02  0.1082880000E+00  0.6761773000E+00  0.1380116800E+03  0.5866243200E+02 -0.1180472603E+02         4
       8       1  0.8000000000E-01         9    9         1     37896  0.7629481000E+00  0.8270857000E+00  0.7037936000E+00  0.1436444221E+03  0.1474062855E+02 -0.1115084819E+02         4
       8       1  0.8000000000E-01        10   10         1     17747  0.1798937995E+00  0.8671042002E+00  0.6439855985E+00  0.1592698407E+03  0.2080065630E+02 -0.7609287601E+01         2
       8       1  0.8000000000E-01        11   11         1     10334  0.7999999998E+00  0.5000000001E+00  0.2979856002E+00  0.1707000000E+03  0.9975000000E+02 -0.8999999762E+01         2
       9       1  0.9000000000E-01         1    1         1     15498  0.2482802985E+00  0.3436159998E+00  0.2707062933E+00  0.1458724204E+03  0.4401542400E+02 -0.7996277231E+01         2
       9       1  0.9000000000E-01         2    2         1     13000  0.4904627985E+00  0.9653650995E+00  0.6047584001E+00  0.1792356942E+03  0.7194804765E+02 -0.7158692110E+01         2
       9       1  0.9000000000E-01         3    3         1     27367  0.6750396598E+00  0.3116441797E+00  0.3825719988E+00  0.1000125595E+03  0.2146746627E+02 -0.1043287907E+02         3
       9       1  0.9000000000E-01         4    4         1     11009  0.8377219993E+00  0.4682206004E+00  0.1455990994E+00  0.1332565830E+03  0.9220233090E+02 -0.8538386883E+01         2
       9       1  0.9000000000E-01         5    5         1     19398  0.4287652996E+00  0.9171314998E+00  0.4770397992E+00  0.1161431479E+03  0.2875697250E+01 -0.7618054313E+01         2
       9       1  0.9000000000E-01         6    6         1     13094  0.4381635994E+00  0.9327257001E+00  0.5856180908E+00  0.1101572454E+03  0.7039908855E+02 -0.7526966740E+01         2
       9       1  0.9000000000E-01         7    7         1     35081  0.3257488000E+00  0.2113362000E+00  0.8507202000E+00  0.1204886232E+03  0.4381700430E+02 -0.1157477896E+02         4
       9       1  0.9000000000E-01         8    8         1     33693  0.7786649999E-02  0.1082880000E+00  0.6761773000E+00  0.1380116800E+03  0.5866243200E+02 -0.1180472603E+02         4
       9       1  0.9000000000E-01         9    9         1     37896  0.7629481000E+00  0.8270857000E+00  0.7037936000E+00  0.1436444221E+03  0.1474062855E+02 -0.1115084819E+02         4
       9       1  0.9000000000E-01        10   10         1     17747  0.1798937994E+00  0.8671042003E+00  0.6439855983E+00  0.1592698407E+03  0.2080065630E+02 -0.7609287602E+01         2
       9       1  0.9000000000E-01        11   11         1     10334  0.7999999998E+00  0.5000000001E+00  0.2979856002E+00  0.1707000000E+03  0.9975000000E+02 -0.8999999762E+01         2
      10       1  0.1000000000E+00         1    1         1     15498  0.2482802983E+00  0.3436159997E+00  0.2707062926E+00  0.1458724204E+03  0.4401542400E+02 -0.7996277232E+01         2
      10       1  0.1000000000E+00         2    2         1     13000  0.4904627984E+00  0.9653650995E+00  0.6047584001E+00  0.1792356942E+03  0.7194804765E+02 -0.7158692110E+01         2
      10       1  0.1000000000E+00         3    3         1     27367  0.6750380553E+00  0.3116426997E+00  0.3825719987E+00  0.1000125571E+03  0.2146746405E+02 -0.1043287907E+02         3
      10       1  0.1000000000E+00         4    4         1     11009  0.8377219993E+00  0.4682206004E+00  0.1455990993E+00  0.1332565830E+03  0.9220233090E+02 -0.8538386883E+01         2
      10       1  0.1000000000E+00         5    5         1     19398  0.4287652995E+00  0.9171314997E+00  0.4770397991E+00  0.1161431479E+03  0.2875697250E+01 -0.7618054313E+01         2
      10       1  0.1000000000E+00         6    6         1     13094  0.4381635994E+00  0.9327257001E+00  0.5856180898E+00  0.1101572454E+03  0.7039908855E+02 -0.7526966742E+01         2
      10       1  0.1000000000E+00         7    7         1     35081  0.3257488000E+00  0.2113362000E+00  0.8507202000E+00  0.1204886232E+03  0.4381700430E+02 -0.1157477896E+02         4
      10       1  0.1000000000E+00         8    8         1     33693  0.7786649999E-02  0.1082880000E+00  0.6761773000E+00  0.1380116800E+03  0.5866243200E+02 -0.1180472603E+02         4
      10       1  0.1000000000E+00         9    9         1     37896  0.7629481000E+00  0.8270857000E+00  0.7037936000E+00  0.1436444221E+03  0.1474062855E+02 -0.1115084819E+02         4
      10       1  0.1000000000E+00        10   10         1     17747  0.1798937994E+00  0.8671042003E+00  0.6439855981E+00  0.1592698407E+03  0.2080065630E+02 -0.7609287602E+01         2
      10       1  0.1000000000E+00        11   11         1     10334  0.7999999998E+00  0.5000000001E+00  0.2979856002E+00  0.1707000000E+03  0.9975000000E+02 -0.8999999761E+01         2
      11       1  0.1100000000E+00         1    1         1     15498  0.2482802981E+00  0.3436159997E+00  0.2707062918E+00  0.1458724204E+03  0.4401542400E+02 -0.7996277234E+01         2
      11       1  0.1100000000E+00         2    2         1     13000  0.4904627982E+00  0.9653650994E+00  0.6047584001E+00  0.1792356942E+03  0.7194804765E+02 -0.7158692110E+01         2
      11       1  0.1100000000E+00         3    3         1     27367  0.6750364508E+00  0.3116412197E+00  0.3825719985E+00  0.1000125547E+03  0.2146746183E+02 -0.1043287907E+02         3
      11       1  0.1100000000E+00         4    4         1     11009  0.8377219992E+00  0.4682206004E+00  0.1455990993E+00  0.1332565830E+03  0.9220233090E+02 -0.8538386883E+01         2
      11       1  0.1100000000E+00         5    5         1     19398  0.4287652995E+00  0.9171314997E+00  0.4770397990E+00  0.1161431479E+03  0.2875697250E+01 -0.7618054313E+01         2
      11       1  0.1100000000E+00         6    6         1     13094  0.4381635993E+00  0.9327257001E+00  0.5856180888E+00  0.1101572454E+03  0.7039908855E+02 -0.7526966745E+01         2
      11       1  0.1100000000E+00         7    7         1     35081  0.3257488000E+00  0.2113362000E+00  0.8507202000E+00  0.1204886232E+03  0.4381700430E+02 -0.1157477896E+02         4
      11       1  0.1100000000E+00         8    8         1     33693  0.7786649999E-02  0.1082880000E+00  0.6761773000E+00  0.1380116800E+03  0.5866243200E+02 -0.1180472603E+02         4
      11       1  0.1100000000E+00         9    9         1     37896  0.7629481000E+00  0.8270857000E+00  0.7037936000E+00  0.1436444221E+03  0.1474062855E+02 -0.1115084819E+02         4
      11       1  0.1100000000E+00        10   10         1     17747  0.1798937993E+00  0.8671042003E+00  0.6439855979E+00  0.1592698407E+03  0.2080065630E+02 -0.7609287603E+01         2
      11       1  0.1100000000E+00        11   11         1     10334  0.7999999997E+00  0.5000000001E+00  0.2979856003E+00  0.1707000000E+03  0.9975000000E+02 -0.8999999761E+01         2
      12       1  0.1200000000E+00         1    1         1     15498  0.2482802980E+00  0.3436159997E+00  0.2707062911E+00  0.1458724204E+03  0.4401542400E+02 -0.7996277235E+01         2
      12       1  0.1200000000E+00         2    2         1     13000  0.4904627981E+00  0.9653650994E+00  0.6047584001E+00  0.1792356942E+03  0.7194804765E+02 -0.7158692110E+01         2
      12       1  0.1200000000E+00         3    3         1     27367  0.6750348464E+00  0.3116397397E+00  0.3825719984E+00  0.1000125523E+03  0.2146745961E+02 -0.1043287907E+02         3
      12       1  0.1200000000E+00         4    4         1     11009  0.8377219991E+00  0.4682206005E+00  0.1455990992E+00  0.1332565830E+03  0.9220233090E+02 -0.8538386883E+01         2
      12       1  0.1200000000E+00         5    5         1     19398  0.4287652994E+00  0.9171314997E+00  0.4770397990E+00  0.1161431479E+03  0.2875697250E+01 -0.7618054314E+01         2
      12       1  0.1200000000E+00         6    6         1     13094  0.4381635993E+00  0.9327257001E+00  0.5856180877E+00  0.1101572454E+03  0.7039908855E+02 -0.7526966748E+01         2
      12       1  0.1200000000E+00         7    7         1     35081  0.3257488000E+00  0.2113362000E+00  0.8507202000E+00  0.1204886232E+03  0.4381700430E+02 -0.1157477896E+02         4
      12       1  0.1200000000E+00         8    8         1     33693  0.7786649999E-02  0.1082880000E+00  0.6761773000E+00  0.1380116800E+03  0.5866243200E+02 -0.1180472603E+02         4
      12       1  0.1200000000E+00         9    9         1     37896  0.7629481000E+00  0.8270857000E+00  0.7037936000E+00  0.1436444221E+03  0.1474062855E+02 -0.1115084819E+02         4
      12       1  0.1200000000E+00        10   10         1     17747  0.1798937992E+00  0.8671042004E+00  0.6439855977E+00  0.1592698407E+03  0.2080065630E+02 -0.7609287603E+01         2
      12       1  0.1200000000E+00        11   11         1     10334  0.7999999997E+00  0.5000000001E+00  0.2979856003E+00  0.1707000000E+03  0.9975000000E+02 -0.8999999761E+01         2
      13       1  0.1300000000E+00         1    1         1     15498  0.2482802978E+00  0.3436159996E+00  0.2707062903E+00  0.1458724204E+03  0.4401542400E+02 -0.7996277236E+01         2
      13       1  0.1300000000E+00         2    2         1     13000  0.4904627979E+00  0.9653650993E+00  0.6047584001E+00  0.1792356942E+03  0.7194804765E+02 -0.7158692110E+01         2
      13       1  0.1300000000E+00         3    3         1     27367  0.6750332419E+00  0.3116382596E+00  0.3825719983E+00  0.1000125499E+03  0.2146745739E+02 -0.1043287907E+02         3
      13       1  0.1300000000E+00         4    4         1     11009  0.8377219990E+00  0.4682206005E+00  0.1455990991E+00  0.1332565830E+03  0.9220233090E+02 -0.8538386883E+01         2
      13       1  0.1300000000E+00         5    5         1     19398  0.4287652994E+00  0.9171314996E+00  0.4770397989E+00  0.1161431479E+03  0.2875697249E+01 -0.7618054314E+01         2
      13       1  0.1300000000E+00         6    6         1     13094  0.4381635992E+00  0.9327257001E+00  0.5856180867E+00  0.1101572454E+03  0.7039908855E+02 -0.7526966751E+01         2
      13       1  0.1300000000E+00         7    7         1     35081  0.3257488000E+00  0.2113362000E+00  0.8507202000E+00  0.1204886232E+03  0.4381700430E+02 -0.1157477896E+02         4
      13       1  0.1300000000E+00         8    8         1     33693  0.7786649999E-02  0.1082880000E+00  0.6761773000E+00  0.1380116800E+03  0.5866243200E+02 -0.1180472603E+02         4
      13       1  0.1300000000E+00         9    9         1     37896  0.7629481000E+00  0.8270857000E+00  0.7037936000E+00  0.1436444221E+03  0.1474062855E+02 -0.1115084819E+02         4
      13       1  0.1300000000E+00        10   10         1     17747  0.1798937992E+00  0.8671042004E+00  0.6439855975E+00  0.1592698407E+03  0.2080065630E+02 -0.7609287604E+01         2
      13       1  0.1300000000E+00        11   11         1     10334  0.7999999997E+00  0.5000000001E+00  0.2979856003E+00  0.1707000000E+03  0.9975000000E+02 -0.8999999761E+01         2
      14       1  0.1400000000E+00         1    1         1     15498  0.2482802976E+00  0.3436159996E+00  0.2707062896E+00  0.1458724204E+03  0.4401542400E+02 -0.7996277238E+01         2
      14       1  0.1400000000E+00         2    2         1     13000  0.4904627977E+00  0.9653650993E+00  0.6047584001E+00  0.1792356942E+03  0.7194804765E+02 -0.7158692110E+01         2
      14       1  0.1400000000E+00         3    3         1     27367  0.6750316374E+00  0.3116367796E+00  0.3825719981E+00  0.1000125475E+03  0.2146745517E+02 -0.1043287907E+02         3
      14       1  0.1400000000E+00         4    4         1     11009  0.8377219990E+00  0.4682206006E+00  0.1455990991E+00  0.1332565830E+03  0.9220233090E+02 -0.8538386884E+01         2