# File generated by Flopy version 3.9.2 on 02/18/2025 at 10:13:24.
BEGIN options
END options

BEGIN griddata
  strt
    CONSTANT       1.00000000
END griddata

