MODPATH_TIMESERIES_FILE         7         2
    2   0.0000000000E+00  0.0000000000E+00  0.0000000000E+00  0.0000000000E+00
END HEADER
       0       1  0.0000000000E+00         1    1         1     10334  0.8000000000E+00  0.5000000000E+00  0.8032694000E+00  0.1707000000E+03  0.9975000000E+02 -0.7000000134E+01         2
       0       1  0.0000000000E+00         2    2         1     10334  0.8000000000E+00  0.5000000000E+00  0.2979856000E+00  0.1707000000E+03  0.9975000000E+02 -0.8999999762E+01         2
       0       1  0.0000000000E+00         3    3         1     29934  0.8000000000E+00  0.5000000000E+00  0.1156525000E+00  0.1707000000E+03  0.9975000000E+02 -0.1100000000E+02         4
       1       1  0.1000000000E-01         1    1         1     10334  0.8000000000E+00  0.5000000000E+00  0.8032694000E+00  0.1707000000E+03  0.9975000000E+02 -0.7000000134E+01         2
       1       1  0.1000000000E-01         2    2         1     10334  0.8000000000E+00  0.5000000000E+00  0.2979856000E+00  0.1707000000E+03  0.9975000000E+02 -0.8999999762E+01         2
       1       1  0.1000000000E-01         3    3         1     29934  0.7999997512E+00  0.4999999169E+00  0.1156525000E+00  0.1706999996E+03  0.9974999988E+02 -0.1100000000E+02         4
       2       1  0.2000000000E-01         1    1         1     10334  0.7999999999E+00  0.5000000000E+00  0.8032694000E+00  0.1707000000E+03  0.9975000000E+02 -0.7000000134E+01         2
       2       1  0.2000000000E-01         2    2         1     10334  0.7999999999E+00  0.5000000000E+00  0.2979856000E+00  0.1707000000E+03  0.9975000000E+02 -0.8999999762E+01         2
       2       1  0.2000000000E-01         3    3         1     29934  0.7999995025E+00  0.4999998338E+00  0.1156525001E+00  0.1706999993E+03  0.9974999975E+02 -0.1100000000E+02         4
       3       1  0.3000000000E-01         1    1         1     10334  0.7999999999E+00  0.5000000000E+00  0.8032694000E+00  0.1707000000E+03  0.9975000000E+02 -0.7000000134E+01         2
       3       1  0.3000000000E-01         2    2         1     10334  0.7999999999E+00  0.5000000000E+00  0.2979856000E+00  0.1707000000E+03  0.9975000000E+02 -0.8999999762E+01         2
       3       1  0.3000000000E-01         3    3         1     29934  0.7999992537E+00  0.4999997506E+00  0.1156525001E+00  0.1706999989E+03  0.9974999963E+02 -0.1100000000E+02         4
       4       1  0.4000000000E-01         1    1         1     10334  0.7999999999E+00  0.5000000000E+00  0.8032694000E+00  0.1707000000E+03  0.9975000000E+02 -0.7000000134E+01         2
       4       1  0.4000000000E-01         2    2         1     10334  0.7999999999E+00  0.5000000000E+00  0.2979856000E+00  0.1707000000E+03  0.9975000000E+02 -0.8999999762E+01         2
       4       1  0.4000000000E-01         3    3         1     29934  0.7999990050E+00  0.4999996675E+00  0.1156525001E+00  0.1706999985E+03  0.9974999950E+02 -0.1100000000E+02         4
       5       1  0.5000000000E-01         1    1         1     10334  0.7999999999E+00  0.5000000000E+00  0.8032694000E+00  0.1707000000E+03  0.9975000000E+02 -0.7000000134E+01         2
       5       1  0.5000000000E-01         2    2         1     10334  0.7999999999E+00  0.5000000000E+00  0.2979856000E+00  0.1707000000E+03  0.9975000000E+02 -0.8999999762E+01         2
       5       1  0.5000000000E-01         3    3         1     29934  0.7999987562E+00  0.4999995844E+00  0.1156525001E+00  0.1706999981E+03  0.9974999938E+02 -0.1100000000E+02         4
       6       1  0.6000000000E-01         1    1         1     10334  0.7999999998E+00  0.5000000000E+00  0.8032694000E+00  0.1707000000E+03  0.9975000000E+02 -0.7000000134E+01         2
       6       1  0.6000000000E-01         2    2         1     10334  0.7999999998E+00  0.5000000000E+00  0.2979856000E+00  0.1707000000E+03  0.9975000000E+02 -0.8999999762E+01         2
       6       1  0.6000000000E-01         3    3         1     29934  0.7999985075E+00  0.4999995013E+00  0.1156525002E+00  0.1706999978E+03  0.9974999925E+02 -0.1100000000E+02         4
       7       1  0.7000000000E-01         1    1         1     10334  0.7999999998E+00  0.5000000000E+00  0.8032694000E+00  0.1707000000E+03  0.9975000000E+02 -0.7000000134E+01         2
       7       1  0.7000000000E-01         2    2         1     10334  0.7999999998E+00  0.5000000000E+00  0.2979856001E+00  0.1707000000E+03  0.9975000000E+02 -0.8999999762E+01         2
       7       1  0.7000000000E-01         3    3         1     29934  0.7999982587E+00  0.4999994181E+00  0.1156525002E+00  0.1706999974E+03  0.9974999913E+02 -0.1100000000E+02         4
       8       1  0.8000000000E-01         1    1         1     10334  0.7999999998E+00  0.5000000000E+00  0.8032694001E+00  0.1707000000E+03  0.9975000000E+02 -0.7000000134E+01         2
       8       1  0.8000000000E-01         2    2         1     10334  0.7999999998E+00  0.5000000000E+00  0.2979856001E+00  0.1707000000E+03  0.9975000000E+02 -0.8999999762E+01         2
       8       1  0.8000000000E-01         3    3         1     29934  0.7999980100E+00  0.4999993350E+00  0.1156525002E+00  0.1706999970E+03  0.9974999900E+02 -0.1100000000E+02         4
       9       1  0.9000000000E-01         1    1         1     10334  0.7999999997E+00  0.5000000000E+00  0.8032694001E+00  0.1707000000E+03  0.9975000000E+02 -0.7000000134E+01         2
       9       1  0.9000000000E-01         2    2         1     10334  0.7999999997E+00  0.5000000000E+00  0.2979856001E+00  0.1707000000E+03  0.9975000000E+02 -0.8999999762E+01         2
       9       1  0.9000000000E-01         3    3         1     29934  0.7999977612E+00  0.4999992519E+00  0.1156525003E+00  0.1706999966E+03  0.9974999888E+02 -0.1100000000E+02         4
      10       1  0.1000000000E+00         1    1         1     10334  0.7999999997E+00  0.4999999999E+00  0.8032694001E+00  0.1707000000E+03  0.9975000000E+02 -0.7000000134E+01         2
      10       1  0.1000000000E+00         2    2         1     10334  0.7999999997E+00  0.4999999999E+00  0.2979856001E+00  0.1707000000E+03  0.9975000000E+02 -0.8999999762E+01         2
      10       1  0.1000000000E+00         3    3         1     29934  0.7999975125E+00  0.4999991688E+00  0.1156525003E+00  0.1706999963E+03  0.9974999875E+02 -0.1100000000E+02         4
      11       1  0.1100000000E+00         1    1         1     10334  0.7999999997E+00  0.4999999999E+00  0.8032694001E+00  0.1707000000E+03  0.9975000000E+02 -0.7000000134E+01         2
      11       1  0.1100000000E+00         2    2         1     10334  0.7999999997E+00  0.4999999999E+00  0.2979856001E+00  0.1707000000E+03  0.9975000000E+02 -0.8999999762E+01         2
      11       1  0.1100000000E+00         3    3         1     29934  0.7999972637E+00  0.4999990856E+00  0.1156525003E+00  0.1706999959E+03  0.9974999863E+02 -0.1100000000E+02         4
      12       1  0.1200000000E+00         1    1         1     10334  0.7999999996E+00  0.4999999999E+00  0.8032694001E+00  0.1707000000E+03  0.9975000000E+02 -0.7000000134E+01         2
      12       1  0.1200000000E+00         2    2         1     10334  0.7999999996E+00  0.4999999999E+00  0.2979856001E+00  0.1707000000E+03  0.9975000000E+02 -0.8999999762E+01         2
      12       1  0.1200000000E+00         3    3         1     29934  0.7999970150E+00  0.4999990025E+00  0.1156525003E+00  0.1706999955E+03  0.9974999850E+02 -0.1100000000E+02         4
      13       1  0.1300000000E+00         1    1         1     10334  0.7999999996E+00  0.4999999999E+00  0.8032694001E+00  0.1707000000E+03  0.9975000000E+02 -0.7000000134E+01         2
      13       1  0.1300000000E+00         2    2         1     10334  0.7999999996E+00  0.4999999999E+00  0.2979856001E+00  0.1707000000E+03  0.9975000000E+02 -0.8999999762E+01         2
      13       1  0.1300000000E+00         3    3         1     29934  0.7999967662E+00  0.4999989194E+00  0.1156525004E+00  0.1706999951E+03  0.9974999838E+02 -0.1100000000E+02         4
      14       1  0.1400000000E+00         1    1         1     10334  0.7999999996E+00  0.4999999999E+00  0.8032694001E+00  0.1707000000E+03  0.9975000000E+02 -0.7000000134E+01         2
      14       1  0.1400000000E+00         2    2         1     10334  0.7999999996E+00  0.4999999999E+00  0.2979856001E+00  0.1707000000E+03  0.9975000000E+02 -0.8999999762E+01         2
      14       1  0.1400000000E+00         3    3         1     29934  0.7999965175E+00  0.4999988363E+00  0.1156525004E+00  0.1706999948E+03  0.9974999825E+02 -0.1100000000E+02         4
      15       1  0.1500000000E+00         1    1         1     10334  0.7999999996E+00  0.4999999999E+00  0.8032694001E+00  0.1707000000E+03  0.9975000000E+02 -0.7000000134E+01         2
      15       1  0.1500000000E+00         2    2         1     10334  0.7999999996E+00  0.4999999999E+00  0.2979856001E+00  0.1707000000E+03  0.9975000000E+02 -0.8999999762E+01         2
      15       1  0.1500000000E+00         3    3         1     29934  0.7999962687E+00  0.4999987532E+00  0.1156525004E+00  0.1706999944E+03  0.9974999813E+02 -0.1100000000E+02         4
      16       1  0.1600000000E+00         1    1         1     10334  0.7999999995E+00  0.4999999999E+00  0.8032694001E+00  0.1707000000E+03  0.9975000000E+02 -0.7000000134E+01         2
      16       1  0.1600000000E+00         2    2         1     10334  0.7999999995E+00  0.4999999999E+00  0.2979856001E+00  0.1707000000E+03  0.9975000000E+02 -0.8999999762E+01         2
      16       1  0.1600000000E+00         3    3         1     29934  0.7999960200E+00  0.4999986700E+00  0.1156525005E+00  0.1706999940E+03  0.9974999801E+02 -0.1100000000E+02         4
      17       1  0.1700000000E+00         1    1         1     10334  0.7999999995E+00  0.4999999999E+00  0.8032694001E+00  0.1707000000E+03  0.9975000000E+02 -0.7000000134E+01         2
      17       1  0.1700000000E+00         2    2         1     10334  0.7999999995E+00  0.4999999999E+00  0.2979856001E+00  0.1707000000E+03  0.9975000000E+02 -0.8999999762E+01         2
      17       1  0.1700000000E+00         3    3         1     29934  0.7999957712E+00  0.4999985869E+00  0.1156525005E+00  0.1706999937E+03  0.9974999788E+02 -0.1100000000E+02         4
      18       1  0.1800000000E+00         1    1         1     10334  0.7999999995E+00  0.4999999999E+00  0.8032694001E+00  0.1707000000E+03  0.9975000000E+02 -0.7000000134E+01         2
      18       1  0.1800000000E+00         2    2         1     10334  0.7999999995E+00  0.4999999999E+00  0.2979856001E+00  0.1707000000E+03  0.9975000000E+02 -0.8999999762E+01         2
      18       1  0.1800000000E+00         3    3         1     29934  0.7999955224E+00  0.4999985038E+00  0.1156525005E+00  0.1706999933E+03  0.9974999776E+02 -0.1100000000E+02         4
      19       1  0.1900000000E+00         1    1         1     10334  0.7999999994E+00  0.4999999999E+00  0.8032694001E+00  0.1707000000E+03  0.9975000000E+02 -0.7000000134E+01         2
      19       1  0.1900000000E+00         2    2         1     10334  0.7999999994E+00  0.4999999999E+00  0.2979856001E+00  0.1707000000E+03  0.9975000000E+02 -0.8999999762E+01         2
      19       1  0.1900000000E+00         3    3         1     29934  0.7999952737E+00  0.4999984207E+00  0.1156525005E+00  0.1706999929E+03  0.9974999763E+02 -0.1100000000E+02         4
      20       1  0.2000000000E+00         1    1         1     10334  0.7999999994E+00  0.4999999999E+00  0.8032694001E+00  0.1707000000E+03  0.9975000000E+02 -0.7000000134E+01         2
      20       1  0.2000000000E+00         2    2         1     10334  0.7999999994E+00  0.4999999999E+00  0.2979856001E+00  0.1707000000E+03  0.9975000000E+02 -0.8999999762E+01         2
      20       1  0.2000000000E+00         3    3         1     29934  0.7999950249E+00  0.4999983375E+00  0.1156525006E+00  0.1706999925E+03  0.9974999751E+02 -0.1100000000E+02         4
      21       1  0.2100000000E+00         1    1         1     10334  0.7999999994E+00  0.4999999999E+00  0.8032694001E+00  0.1707000000E+03  0.9975000000E+02 -0.7000000134E+01         2
      21       1  0.2100000000E+00         2    2         1     10334  0.7999999994E+00  0.4999999999E+00  0.2979856002E+00  0.1707000000E+03  0.9975000000E+02 -0.8999999762E+01         2
      21       1  0.2100000000E+00         3    3         1     29934  0.7999947762E+00  0.4999982544E+00  0.1156525006E+00  0.1706999922E+03  0.9974999738E+02 -0.1100000000E+02         4
      22       1  0.2200000000E+00         1    1         1     10334  0.7999999994E+00  0.4999999999E+00  0.8032694002E+00  0.1707000000E+03  0.9975000000E+02 -0.7000000133E+01         2
      22       1  0.2200000000E+00         2    2         1     10334  0.7999999994E+00  0.4999999999E+00  0.2979856002E+00  0.1707000000E+03  0.9975000000E+02 -0.8999999762E+01         2
      22       1  0.2200000000E+00         3    3         1     29934  0.7999945274E+00  0.4999981713E+00  0.1156525006E+00  0.1706999918E+03  0.9974999726E+02 -0.1100000000E+02         4
      23       1  0.2300000000E+00         1    1         1     10334  0.7999999993E+00  0.4999999999E+00  0.8032694002E+00  0.1707000000E+03  0.9975000000E+02 -0.7000000133E+01         2
      23       1  0.2300000000E+00         2    2         1     10334  0.7999999993E+00  0.4999999999E+00  0.2979856002E+00  0.1707000000E+03  0.9975000000E+02 -0.8999999762E+01         2
      23       1  0.2300000000E+00         3    3         1     29934  0.7999942787E+00  0.4999980882E+00  0.1156525007E+00  0.1706999914E+03  0.9974999713E+02 -0.1100000000E+02         4
      24       1  0.2400000000E+00         1    1         1     10334  0.7999999993E+00  0.4999999999E+00  0.8032694002E+00  0.1707000000E+03  0.9975000000E+02 -0.7000000133E+01         2
      24       1  0.2400000000E+00         2    2         1     10334  0.7999999993E+00  0.4999999999E+00  0.2979856002E+00  0.1707000000E+03  0.9975000000E+02 -0.8999999762E+01         2
      24       1  0.2400000000E+00         3    3         1     29934  0.7999940299E+00  0.4999980050E+00  0.1156525007E+00  0.1706999910E+03  0.9974999701E+02 -0.1100000000E+02         4
      25       1  0.2500000000E+00         1    1         1     10334  0.7999999993E+00  0.4999999999E+00  0.8032694002E+00  0.1707000000E+03  0.9975000000E+02 -0.7000000133E+01         2
      25       1  0.2500000000E+00         2    2         1     10334  0.7999999993E+00  0.4999999999E+00  0.2979856002E+00  0.1707000000E+03  0.9975000000E+02 -0.8999999762E+01         2
      25       1  0.2500000000E+00         3    3         1     29934  0.7999937812E+00  0.4999979219E+00  0.1156525007E+00  0.1706999907E+03  0.9974999688E+02 -0.1100000000E+02         4
      26       1  0.2600000000E+00         1    1         1     10334  0.7999999992E+00  0.4999999999E+00  0.8032694002E+00  0.1707000000E+03  0.9975000000E+02 -0.7000000133E+01         2
      26       1  0.2600000000E+00         2    2         1     10334  0.7999999992E+00  0.4999999999E+00  0.2979856002E+00  0.1707000000E+03  0.9975000000E+02 -0.8999999762E+01         2
      26       1  0.2600000000E+00         3    3         1     29934  0.7999935324E+00  0.4999978388E+00  0.1156525008E+00  0.1706999903E+03  0.9974999676E+02 -0.1100000000E+02         4
      27       1  0.2700000000E+00         1    1         1     10334  0.7999999992E+00  0.4999999999E+00  0.8032694002E+00  0.1707000000E+03  0.9975000000E+02 -0.7000000133E+01         2
      27       1  0.2700000000E+00         2    2         1     10334  0.7999999992E+00  0.4999999999E+00  0.2979856002E+00  0.1707000000E+03  0.9975000000E+02 -0.8999999762E+01         2
      27       1  0.2700000000E+00         3    3         1     29934  0.7999932837E+00  0.4999977557E+00  0.1156525008E+00  0.1706999899E+03  0.9974999663E+02 -0.1100000000E+02         4
      28       1  0.2800000000E+00         1    1         1     10334  0.7999999992E+00  0.4999999998E+00  0.8032694002E+00  0.1707000000E+03  0.9975000000E+02 -0.7000000133E+01         2
      28       1  0.2800000000E+00         2    2         1     10334  0.7999999992E+00  0.4999999998E+00  0.2979856002E+00  0.1707000000E+03  0.9975000000E+02 -0.8999999762E+01         2
      28       1  0.2800000000E+00         3    3         1     29934  0.7999930349E+00  0.4999976726E+00  0.1156525008E+00  0.1706999896E+03  0.9974999651E+02 -0.1100000000E+02         4
      29       1  0.2900000000E+00         1    1         1     10334  0.7999999992E+00  0.4999999998E+00  0.8032694002E+00  0.1707000000E+03  0.9975000000E+02 -0.7000000133E+01         2
      29       1  0.2900000000E+00         2    2         1     10334  0.7999999992E+00  0.4999999998E+00  0.2979856002E+00  0.1707000000E+03  0.9975000000E+02 -0.8999999762E+01         2
      29       1  0.2900000000E+00         3    3         1     29934  0.7999927862E+00  0.4999975894E+00  0.1156525008E+00  0.1706999892E+03  0.9974999638E+02 -0.1100000000E+02         4
      30       1  0.3000000000E+00         1    1         1     10334  0.7999999991E+00  0.4999999998E+00  0.8032694002E+00  0.1707000000E+03  0.9975000000E+02 -0.7000000133E+01         2
      30       1  0.3000000000E+00         2    2         1     10334  0.7999999991E+00  0.4999999998E+00  0.2979856002E+00  0.1707000000E+03  0.9975000000E+02 -0.8999999762E+01         2
      30       1  0.3000000000E+00         3    3         1     29934  0.7999925374E+00  0.4999975063E+00  0.1156525009E+00  0.1706999888E+03  0.9974999626E+02 -0.1100000000E+02         4
      31       1  0.3100000000E+00         1    1         1     10334  0.7999999991E+00  0.4999999998E+00  0.8032694002E+00  0.1707000000E+03  0.9975000000E+02 -0.7000000133E+01         2
      31       1  0.3100000000E+00         2    2         1     10334  0.7999999991E+00  0.4999999998E+00  0.2979856002E+00  0.1707000000E+03  0.9975000000E+02 -0.8999999762E+01         2
      31       1  0.3100000000E+00         3    3         1     29934  0.7999922887E+00  0.4999974232E+00  0.1156525009E+00  0.1706999884E+03  0.9974999613E+02 -0.1100000000E+02         4
      32       1  0.3200000000E+00         1    1         1     10334  0.7999999991E+00  0.4999999998E+00  0.8032694002E+00  0.1707000000E+03  0.9975000000E+02 -0.7000000133E+01         2
      32       1  0.3200000000E+00         2    2         1     10334  0.7999999991E+00  0.4999999998E+00  0.2979856002E+00  0.1707000000E+03  0.9975000000E+02 -0.8999999762E+01         2
      32       1  0.3200000000E+00         3    3         1     29934  0.7999920399E+00  0.4999973401E+00  0.1156525009E+00  0.1706999881E+03  0.9974999601E+02 -0.1100000000E+02         4
      33       1  0.3300000000E+00         1    1         1     10334  0.7999999990E+00  0.4999999998E+00  0.8032694002E+00  0.1707000000E+03  0.9975000000E+02 -0.7000000133E+01         2
      33       1  0.3300000000E+00         2    2         1     10334  0.7999999990E+00  0.4999999998E+00  0.2979856002E+00  0.1707000000E+03  0.9975000000E+02 -0.8999999761E+01         2
      33       1  0.3300000000E+00         3    3         1     29934  0.7999917912E+00  0.4999972569E+00  0.1156525010E+00  0.1706999877E+03  0.9974999589E+02 -0.1100000000E+02         4
      34       1  0.3400000000E+00         1    1         1     10334  0.7999999990E+00  0.4999999998E+00  0.8032694002E+00  0.1707000000E+03  0.9975000000E+02 -0.7000000133E+01         2
      34       1  0.3400000000E+00         2    2         1     10334  0.7999999990E+00  0.4999999998E+00  0.2979856002E+00  0.1707000000E+03  0.9975000000E+02 -0.8999999761E+01         2
      34       1  0.3400000000E+00         3    3         1     29934  0.7999915424E+00  0.4999971738E+00  0.1156525010E+00  0.1706999873E+03  0.9974999576E+02 -0.1100000000E+02         4
      35       1  0.3500000000E+00         1    1         1     10334  0.7999999990E+00  0.4999999998E+00  0.8032694002E+00  0.1707000000E+03  0.9975000000E+02 -0.7000000133E+01         2
      35       1  0.3500000000E+00         2    2         1     10334  0.7999999990E+00  0.4999999998E+00  0.2979856003E+00  0.1707000000E+03  0.9975000000E+02 -0.8999999761E+01         2
      35       1  0.3500000000E+00         3    3         1     29934  0.7999912937E+00  0.4999970907E+00  0.1156525010E+00  0.1706999869E+03  0.9974999564E+02 -0.1100000000E+02         4
      36       1  0.3600000000E+00         1    1         1     10334  0.7999999989E+00  0.4999999998E+00  0.8032694003E+00  0.1707000000E+03  0.9975000000E+02 -0.7000000133E+01         2
      36       1  0.3600000000E+00         2    2         1     10334  0.7999999989E+00  0.4999999998E+00  0.2979856003E+00  0.1707000000E+03  0.9975000000E+02 -0.8999999761E+01         2
      36       1  0.3600000000E+00         3    3         1     29934  0.7999910449E+00  0.4999970076E+00  0.1156525010E+00  0.1706999866E+03  0.9974999551E+02 -0.1100000000E+02         4
      37       1  0.3700000000E+00         1    1         1     10334  0.7999999989E+00  0.4999999998E+00  0.8032694003E+00  0.1707000000E+03  0.9975000000E+02 -0.7000000133E+01         2
      37       1  0.3700000000E+00         2    2         1     10334  0.7999999989E+00  0.4999999998E+00  0.2979856003E+00  0.1707000000E+03  0.9975000000E+02 -0.8999999761E+01         2
      37       1  0.3700000000E+00         3    3         1     29934  0.7999907962E+00  0.4999969244E+00  0.1156525011E+00  0.1706999862E+03  0.9974999539E+02 -0.1100000000E+02         4
      38       1  0.3800000000E+00         1    1         1     10334  0.7999999989E+00  0.4999999998E+00  0.8032694003E+00  0.1707000000E+03  0.9975000000E+02 -0.7000000133E+01         2
      38       1  0.3800000000E+00         2    2         1     10334  0.7999999989E+00  0.4999999998E+00  0.2979856003E+00  0.1707000000E+03  0.9975000000E+02 -0.8999999761E+01         2
      38       1  0.3800000000E+00         3    3         1     29934  0.7999905474E+00  0.4999968413E+00  0.1156525011E+00  0.1706999858E+03  0.9974999526E+02 -0.1100000000E+02         4
      39       1  0.3900000000E+00         1    1         1     10334  0.7999999989E+00  0.4999999998E+00  0.8032694003E+00  0.1707000000E+03  0.9975000000E+02 -0.7000000133E+01         2
      39       1  0.3900000000E+00         2    2         1     10334  0.7999999989E+00  0.4999999998E+00  0.2979856003E+00  0.1707000000E+03  0.9975000000E+02 -0.8999999761E+01         2
      39       1  0.3900000000E+00         3    3         1     29934  0.7999902987E+00  0.4999967582E+00  0.1156525011E+00  0.1706999854E+03  0.9974999514E+02 -0.1100000000E+02         4
      40       1  0.4000000000E+00         1    1         1     10334  0.7999999988E+00  0.4999999998E+00  0.8032694003E+00  0.1707000000E+03  0.9975000000E+02 -0.7000000133E+01         2
      40       1  0.4000000000E+00         2    2         1     10334  0.7999999988E+00  0.4999999998E+00  0.2979856003E+00  0.1707000000E+03  0.9975000000E+02 -0.8999999761E+01         2
      40       1  0.4000000000E+00         3    3         1     29934  0.7999900499E+00  0.4999966751E+00  0.1156525012E+00  0.1706999851E+03  0.9974999501E+02 -0.1100000000E+02         4
      41       1  0.4100000000E+00         1    1         1     10334  0.7999999988E+00  0.4999999998E+00  0.8032694003E+00  0.1707000000E+03  0.9975000000E+02 -0.7000000133E+01         2
      41       1  0.4100000000E+00         2    2         1     10334  0.7999999988E+00  0.4999999998E+00  0.2979856003E+00  0.1707000000E+03  0.9975000000E+02 -0.8999999761E+01         2
      41       1  0.4100000000E+00         3    3         1     29934  0.7999898012E+00  0.4999965919E+00  0.1156525012E+00  0.1706999847E+03  0.9974999489E+02 -0.1100000000E+02         4
      42       1  0.4200000000E+00         1    1         1     10334  0.7999999988E+00  0.4999999998E+00  0.8032694003E+00  0.1707000000E+03  0.9975000000E+02 -0.7000000133E+01         2
      42       1  0.4200000000E+00         2    2         1     10334  0.7999999988E+00  0.4999999998E+00  0.2979856003E+00  0.1707000000E+03  0.9975000000E+02 -0.8999999761E+01         2
      42       1  0.4200000000E+00         3    3         1     29934  0.7999895524E+00  0.4999965088E+00  0.1156525012E+00  0.1706999843E+03  0.9974999476E+02 -0.1100000000E+02         4
      43       1  0.4300000000E+00         1    1         1     10334  0.7999999987E+00  0.4999999998E+00  0.8032694003E+00  0.1707000000E+03  0.9975000000E+02 -0.7000000133E+01         2
      43       1  0.4300000000E+00         2    2         1     10334  0.7999999987E+00  0.4999999998E+00  0.2979856003E+00  0.1707000000E+03  0.9975000000E+02 -0.8999999761E+01         2
      43       1  0.4300000000E+00         3    3         1     29934  0.7999893037E+00  0.4999964257E+00  0.1156525012E+00  0.1706999840E+03  0.9974999464E+02 -0.1100000000E+02         4
      44       1  0.4400000000E+00         1    1         1     10334  0.7999999987E+00  0.4999999998E+00  0.8032694003E+00  0.1707000000E+03  0.9975000000E+02 -0.7000000133E+01         2
      44       1  0.4400000000E+00         2    2         1     10334  0.7999999987E+00  0.4999999998E+00  0.2979856003E+00  0.1707000000E+03  0.9975000000E+02 -0.8999999761E+01         2
      44       1  0.4400000000E+00         3    3         1     29934  0.7999890549E+00  0.4999963426E+00  0.1156525013E+00  0.1706999836E+03  0.9974999451E+02 -0.1100000000E+02         4
      45       1  0.4500000000E+00         1    1         1     10334  0.7999999987E+00  0.4999999998E+00  0.8032694003E+00  0.1707000000E+03  0.9975000000E+02 -0.7000000133E+01         2
      45       1  0.4500000000E+00         2    2         1     10334  0.7999999987E+00  0.4999999998E+00  0.2979856003E+00  0.1707000000E+03  0.9975000000E+02 -0.8999999761E+01         2
      45       1  0.4500000000E+00         3    3         1     29934  0.7999888062E+00  0.4999962595E+00  0.1156525013E+00  0.1706999832E+03  0.9974999439E+02 -0.1100000000E+02         4
      46       1  0.4600000000E+00         1    1         1     10334  0.7999999987E+00  0.4999999998E+00  0.8032694003E+00  0.1707000000E+03  0.9975000000E+02 -0.7000000133E+01         2
      46       1  0.4600000000E+00         2    2         1     10334  0.7999999987E+00  0.4999999998E+00  0.2979856003E+00  0.1707000000E+03  0.9975000000E+02 -0.8999999761E+01         2
      46       1  0.4600000000E+00         3    3         1     29934  0.7999885574E+00  0.4999961763E+00  0.1156525013E+00  0.1706999828E+03  0.9974999426E+02 -0.1100000000E+02         4
      47       1  0.4700000000E+00         1    1         1     10334  0.7999999986E+00  0.4999999997E+00  0.8032694003E+00  0.1707000000E+03  0.9975000000E+02 -0.7000000133E+01         2
      47       1  0.4700000000E+00         2    2         1     10334  0.7999999986E+00  0.4999999997E+00  0.2979856003E+00  0.1707000000E+03  0.9975000000E+02 -0.8999999761E+01         2
      47       1  0.4700000000E+00         3    3         1     29934  0.7999883087E+00  0.4999960932E+00  0.1156525014E+00  0.1706999825E+03  0.9974999414E+02 -0.1100000000E+02         4
      48       1  0.4800000000E+00         1    1         1     10334  0.7999999986E+00  0.4999999997E+00  0.8032694003E+00  0.1707000000E+03  0.9975000000E+02 -0.7000000133E+01         2
      48       1  0.4800000000E+00         2    2         1     10334  0.7999999986E+00  0.4999999997E+00  0.2979856004E+00  0.1707000000E+03  0.9975000000E+02 -0.8999999761E+01         2
      48       1  0.4800000000E+00         3    3         1     29934  0.7999880599E+00  0.4999960101E+00  0.1156525014E+00  0.1706999821E+03  0.9974999402E+02 -0.1100000000E+02         4
      49       1  0.4900000000E+00         1    1         1     10334  0.7999999986E+00  0.4999999997E+00  0.8032694003E+00  0.1707000000E+03  0.9975000000E+02 -0.7000000133E+01         2
      49       1  0.4900000000E+00         2    2         1     10334  0.7999999986E+00  0.4999999997E+00  0.2979856004E+00  0.1707000000E+03  0.9975000000E+02 -0.8999999761E+01         2
      49       1  0.4900000000E+00         3    3         1     29934  0.7999878112E+00  0.4999959270E+00  0.1156525014E+00  0.1706999817E+03  0.9974999389E+02 -0.1100000000E+02         4
      50       1  0.5000000000E+00         1    1         1     10334  0.7999999985E+00  0.4999999997E+00  0.8032694004E+00  0.1707000000E+03  0.9975000000E+02 -0.7000000133E+01         2
      50       1  0.5000000000E+00         2    2         1     10334  0.7999999985E+00  0.4999999997E+00  0.2979856004E+00  0.1707000000E+03  0.9975000000E+02 -0.8999999761E+01         2
      50       1  0.5000000000E+00         3    3         1     29934  0.7999875624E+00  0.4999958438E+00  0.1156525014E+00  0.1706999813E+03  0.9974999377E+02 -0.1100000000E+02         4
      51       1  0.5100000000E+00         1    1         1     10334  0.7999999985E+00  0.4999999997E+00  0.8032694004E+00  0.1707000000E+03  0.9975000000E+02 -0.7000000133E+01         2
      51       1  0.5100000000E+00         2    2         1     10334  0.7999999985E+00  0.4999999997E+00  0.2979856004E+00  0.1707000000E+03  0.9975000000E+02 -0.8999999761E+01         2
      51       1  0.5100000000E+00         3    3         1     29934  0.7999873137E+00  0.4999957607E+00  0.1156525015E+00  0.1706999810E+03  0.9974999364E+02 -0.1100000000E+02         4
      52       1  0.5200000000E+00         1    1         1     10334  0.7999999985E+00  0.4999999997E+00  0.8032694004E+00  0.1707000000E+03  0.9975000000E+02 -0.7000000133E+01         2
      52       1  0.5200000000E+00         2    2         1     10334  0.7999999985E+00  0.4999999997E+00  0.2979856004E+00  0.1707000000E+03  0.9975000000E+02 -0.8999999761E+01         2