# File generated by Flopy version 3.9.2 on 02/26/2025 at 15:28:45.
BEGIN options
  SAVE_FLOWS
  SAVE_SPECIFIC_DISCHARGE
  SAVE_SATURATION
END options

BEGIN griddata
  icelltype
    CONSTANT  0
  k  LAYERED
    INTERNAL  FACTOR  1.0
      1.63879016E-04  1.63879016E-04  1.63879016E-04  1.63879016E-04  1.63879016E-04  1.63879016E-04  1.63879016E-04  1.63879016E-04  1.63879016E-04  1.63879016E-04  1.63879016E-04  1.63879016E-04  1.63879016E-04  1.63879016E-04  1.63879016E-04  1.63879016E-04  1.63879016E-04  1.63879016E-04  1.63879016E-04  1.63879016E-04  1.63879016E-04  1.63879016E-04  1.63879016E-04  1.63879016E-04  1.63879016E-04  1.63879016E-04  1.63879016E-04  1.63879016E-04  2.25989395E-04  2.73569400E-04  3.61965504E-04  3.74887488E-04  3.58995487E-04  2.97136139E-04  2.90564727E-04  3.30195326E-04  3.45707871E-04  3.47538124E-04  2.86304363E-04  2.29649479E-04  2.24831587E-04  2.35816071E-04  1.93050000E-04  1.73260938E-04  1.24929458E-04  8.68429415E-05  5.33793500E-05  3.68025103E-05  3.06010188E-05  3.13826968E-05  1.63879016E-04  1.63879016E-04  1.63879016E-04  1.63879016E-04  1.63879016E-04  1.63879016E-04  2.68442265E-04  3.60914273E-04  4.76600224E-04  6.78867451E-04  9.37316916E-04       0.00124247       0.00135217       0.00108003  8.87208618E-04  8.12420738E-04  6.90237153E-04  6.62241189E-04  6.76219177E-04  6.46022847E-04  6.24774140E-04  5.19430090E-04  3.16501362E-04  2.47068790E-04  1.68071070E-04  1.23429752E-04  8.84414549E-05  7.01326207E-05  6.77604767E-05  6.60165533E-05  5.94625089E-05  5.56279338E-05  5.75579434E-05  5.69983713E-05  7.39909519E-05  9.69260800E-05  1.28896878E-04  1.68141152E-04  1.78820395E-04  2.34003004E-04  2.46948446E-04  3.27575195E-04  3.59099329E-04  3.30577954E-04  2.79459346E-04  2.34112813E-04  1.90330786E-04  1.34878952E-04  1.09410365E-04  9.13346448E-05  8.17063847E-05  8.11708742E-05  7.70000333E-05  7.80524715E-05  7.12613983E-05  6.73100076E-05  7.71277555E-05  7.90274207E-05  7.24631318E-05  6.83383550E-05  6.22814259E-05  7.06314531E-05  8.18147673E-05  1.02578328E-04  1.04285820E-04  8.07242250E-05  6.18964914E-05  4.62544995E-05  3.36161065E-05  2.63731872E-05  2.41642574E-05  1.93976157E-05  1.49249372E-05  1.63879016E-04  1.63879016E-04  1.63879016E-04  1.63879016E-04  1.63879016E-04  1.63879016E-04  1.63879016E-04  1.63879016E-04  1.63879016E-04  1.63879016E-04  1.63879016E-04  1.63879016E-04  1.63879016E-04  1.63879016E-04  1.63879016E-04  1.63879016E-04  1.00747413E-04
      2.70031906E-05  3.61861785E-05  1.63879016E-04  1.63879016E-04  1.63879016E-04  1.63879016E-04  1.63879016E-04  1.63879016E-04  1.63879016E-04  1.63879016E-04  1.63879016E-04  1.63879016E-04  1.63879016E-04  1.63879016E-04  1.63879016E-04  1.63879016E-04  1.63879016E-04  1.63879016E-04  1.63879016E-04  1.63879016E-04  1.63879016E-04  1.63879016E-04  1.63879016E-04  1.63879016E-04  1.63879016E-04  1.63879016E-04  1.61647782E-04  1.72392698E-04  1.93774889E-04  2.54377781E-04  3.26480775E-04  3.95819079E-04  3.38090002E-04  2.52680766E-04  2.40528621E-04  2.81349057E-04  2.73379526E-04  2.56479223E-04  2.33138198E-04  1.89706217E-04  1.73643872E-04  1.61155869E-04  1.18805772E-04  1.05409905E-04  8.24969829E-05  6.91937021E-05  4.75664710E-05  3.97770200E-05  4.10970861E-05  4.68927174E-05  6.43519670E-05  9.72351918E-05  1.63879016E-04  1.64550351E-04  1.63879016E-04  2.64872913E-04  3.70721216E-04  4.72813903E-04  6.19387894E-04  7.78019545E-04       0.00106228       0.00127273       0.00141345       0.00128311       0.00103041  9.05127556E-04  7.58010719E-04  6.71918096E-04  7.03045633E-04  6.46509929E-04  6.08195260E-04  4.54297289E-04  3.29143542E-04  2.27877870E-04  1.49152809E-04  9.49872556E-05  6.54737087E-05  5.42876987E-05  5.06419565E-05  4.95055247E-05  4.46515005E-05  4.57078968E-05  4.67223254E-05  4.84323245E-05  6.76385607E-05  7.65197619E-05  1.08376189E-04  1.55190894E-04  1.87215090E-04  2.27402561E-04  3.14690958E-04  4.04703256E-04  4.24586528E-04  4.00101824E-04  3.37812671E-04  2.84353999E-04  2.43275063E-04  1.79805109E-04  1.46325168E-04  1.29573746E-04  1.11205700E-04  9.83733626E-05  9.51231559E-05  1.01889615E-04  9.30136302E-05  8.32025544E-05  8.78201827E-05  8.38332198E-05  6.90132292E-05  6.62028178E-05  6.09001290E-05  6.68979483E-05  8.39426939E-05  1.03640472E-04  9.18812293E-05  7.75469161E-05  6.64837135E-05  5.89595365E-05  4.93957778E-05  4.11199690E-05  3.74179144E-05  2.94130587E-05  2.30118658E-05  1.63879016E-04  1.63879016E-04  1.63879016E-04  1.63879016E-04  1.63879016E-04  1.63879016E-04  1.63879016E-04  1.63879016E-04  1.63879016E-04  1.63879016E-04  1.63879016E-04  1.63879016E-04  1.63879016E-04  1.63879016E-04  1.63879016E-04  1.63879016E-04  1.02662125E-04
      3.67246867E-05  5.15205902E-05  1.63879016E-04  1.63879016E-04  1.63879016E-04  1.63879016E-04  1.63879016E-04  1.63879016E-04  1.63879016E-04  1.63879016E-04  1.63879016E-04  1.63879016E-04  1.63879016E-04  1.63879016E-04  1.63879016E-04  1.63879016E-04  1.63879016E-04  1.63879016E-04  1.63879016E-04  1.63879016E-04  1.63879016E-04  1.63879016E-04  1.63879016E-04  1.63879016E-04  1.63879016E-04  1.70071988E-04  1.46718652E-04  1.66775106E-04  2.03170668E-04  2.44514842E-04  2.88996322E-04  3.25452886E-04  3.10912670E-04  2.33324288E-04  2.16322835E-04  2.31470345E-04  2.11099497E-04  1.84752498E-04  1.64452431E-04  1.50932508E-04  1.16492702E-04  1.01528865E-04  8.04307638E-05  6.35077013E-05  5.41289119E-05  4.35398470E-05  3.36688827E-05  3.56728378E-05  4.67357386E-05  6.48852074E-05  8.23846567E-05  1.24105703E-04  1.69033490E-04  2.12930798E-04  2.91179895E-04  3.57952871E-04  4.22762998E-04  5.60273649E-04  7.34820031E-04  8.81999033E-04       0.00106433       0.00117012       0.00128208       0.00136041       0.00115168  9.53358132E-04  8.22667324E-04  7.36994902E-04  6.55229378E-04  6.11185911E-04  5.32446662E-04  4.03129583E-04  3.21449683E-04  2.14531086E-04  1.40060991E-04  8.87492060E-05  5.94567427E-05  4.45932383E-05  4.38877032E-05  4.10486318E-05  3.56836572E-05  3.53483483E-05  3.95116804E-05  4.74272128E-05  6.01826287E-05  6.78436118E-05  9.17661819E-05  1.21713812E-04  1.73573208E-04  2.44075665E-04  3.27673857E-04  4.33112960E-04  4.82620060E-04  4.17612289E-04  3.60031408E-04  3.32598604E-04  2.94019381E-04  2.26416698E-04  1.95112618E-04  1.67079372E-04  1.49139654E-04  1.32173285E-04  1.15497736E-04  1.18294687E-04  1.00616489E-04  8.86960843E-05  8.41022047E-05  7.87121826E-05  6.54905598E-05  7.08261214E-05  6.90397719E-05  7.45079305E-05  8.90466326E-05  1.04718252E-04  9.70671899E-05  7.91504208E-05  7.46999940E-05  7.37121227E-05  8.55113976E-05  7.04592603E-05  5.73987018E-05  5.04094314E-05  3.64409134E-05  1.63879016E-04  1.63879016E-04  1.63879016E-04  1.63879016E-04  1.63879016E-04  1.63879016E-04  1.63879016E-04  1.63879016E-04  1.63879016E-04  1.63879016E-04  1.63879016E-04  1.63879016E-04  1.63879016E-04  1.63879016E-04  1.63879016E-04  1.63879016E-04  1.63879016E-04
      4.27797713E-05  6.83107210E-05  9.27129076E-05  1.63879016E-04  1.63879016E-04  1.63879016E-04  1.63879016E-04  1.63879016E-04  1.63879016E-04  1.63879016E-04  1.63879016E-04  1.63879016E-04  1.63879016E-04  1.63879016E-04  1.63879016E-04  1.63879016E-04  1.63879016E-04  1.63879016E-04  1.63879016E-04  1.63879016E-04  1.63879016E-04  1.63879016E-04  1.63879016E-04  1.63879016E-04  1.67359991E-04  1.53627960E-04  1.48218780E-04  1.49295985E-04  1.82257398E-04  2.12185667E-04  2.34940322E-04  2.64703005E-04  2.52297701E-04  2.20443835E-04  1.87024401E-04  1.93948494E-04  1.75575609E-04  1.37812764E-04  1.20476740E-04  1.10538887E-04  8.31192228E-05  7.02441394E-05  5.45863149E-05  4.21262957E-05  3.71752540E-05  2.70527999E-05  2.28490935E-05  2.82771762E-05  3.88316803E-05  6.75800111E-05  1.06708132E-04  1.39139753E-04  1.74292669E-04  2.27970260E-04  2.51693767E-04  3.00652639E-04  3.86083440E-04  5.23308816E-04  7.23217381E-04  8.24498478E-04  8.19304667E-04  8.72250937E-04  9.28637397E-04       0.00106640  9.89682740E-04  9.04036569E-04  7.92296312E-04  7.04695995E-04  5.41582122E-04  5.06472250E-04  4.28303058E-04  3.20319639E-04  2.50090845E-04  1.70023777E-04  1.07751825E-04  7.15867500E-05  5.38816166E-05  4.25347025E-05  3.94667150E-05  3.68606670E-05  3.25838337E-05  3.13554010E-05  3.51924537E-05  4.60527735E-05  5.71047676E-05  7.01172830E-05  8.16129541E-05  1.04824256E-04  1.57958522E-04  2.22570612E-04  3.01445514E-04  4.07284679E-04  4.31168708E-04  3.83898616E-04  3.52106959E-04  3.46544432E-04  3.24543013E-04  2.76603765E-04  2.65087001E-04  2.46462499E-04  2.11222039E-04  1.74710105E-04  1.47560102E-04  1.23526275E-04  1.03429120E-04  8.29304045E-05  7.09355518E-05  6.34131866E-05  5.68285104E-05  6.43094245E-05  7.41825206E-05  8.00206471E-05  9.68406239E-05  1.17613257E-04  1.17012700E-04  1.04060993E-04  9.99837503E-05  1.17489093E-04  1.30501896E-04  1.12879214E-04  9.76251176E-05  9.04975677E-05  7.42611810E-05  1.63879016E-04  1.63879016E-04  1.63879016E-04  1.63879016E-04  1.63879016E-04  1.63879016E-04  1.63879016E-04  1.63879016E-04  1.63879016E-04  1.63879016E-04  1.63879016E-04  1.63879016E-04  1.63879016E-04  1.63879016E-04  1.63879016E-04  1.63879016E-04  1.47603525E-04
      4.83480399E-05  6.82068130E-05  1.04465609E-04  1.30219487E-04  1.35946713E-04  1.63879016E-04  1.63879016E-04  1.63879016E-04  1.63879016E-04  1.63879016E-04  1.63879016E-04  1.63879016E-04  1.63879016E-04  1.63879016E-04  1.63879016E-04  1.63879016E-04  1.63879016E-04  1.63879016E-04  1.63879016E-04  1.63879016E-04  1.63879016E-04  1.63879016E-04  1.63879016E-04  1.43372308E-04  1.37945739E-04  1.35863229E-04  1.44068821E-04  1.52125765E-04  1.69507111E-04  1.89876839E-04  2.10492828E-04  2.26166725E-04  2.14028405E-04  1.90555409E-04  1.59220566E-04  1.37451570E-04  1.28431580E-04  1.02905149E-04  8.18529297E-05  7.77275927E-05  6.42700252E-05  5.08741941E-05  3.97336553E-05  2.92706973E-05  2.48856886E-05  1.84372675E-05  1.73510780E-05  2.18222776E-05  3.24735629E-05  5.99707273E-05  9.53419003E-05  1.16482661E-04  1.45024562E-04  1.80725532E-04  1.84607328E-04  2.20661983E-04  3.05257796E-04  4.23472491E-04  5.80664200E-04  6.52957708E-04  6.47595909E-04  7.01707031E-04  7.20756827E-04  7.77200446E-04  8.42388312E-04  8.13372957E-04  7.50567298E-04  6.20683306E-04  4.75298351E-04  4.22900921E-04  3.62523657E-04  2.67671887E-04  1.92458232E-04  1.23765160E-04  8.43948292E-05  6.48586865E-05  5.55540682E-05  4.82031865E-05  4.03668746E-05  3.25586007E-05  2.88713891E-05  2.80303029E-05  3.21148473E-05  3.98456941E-05  5.00446477E-05  6.79121513E-05  7.30977918E-05  9.03388282E-05  1.27504012E-04  1.76546353E-04  2.10949787E-04  2.81798450E-04  3.34919896E-04  3.26320645E-04  3.18827690E-04  3.52001574E-04  3.55098047E-04  3.63389554E-04  3.66470835E-04  3.47352063E-04  3.20605817E-04  2.50822341E-04  1.86518475E-04  1.51815388E-04  1.09351291E-04  7.42591801E-05  5.99691630E-05  5.93739242E-05  5.96803220E-05  6.63691098E-05  6.56262855E-05  7.52764099E-05  8.41106375E-05  1.10242690E-04  1.18424810E-04  1.30327127E-04  1.35315306E-04  1.45125305E-04  1.78627422E-04  1.62039170E-04  1.45222788E-04  1.36630726E-04  1.20178185E-04  1.63879016E-04  1.63879016E-04  1.63879016E-04  1.63879016E-04  1.63879016E-04  1.63879016E-04  1.63879016E-04  1.63879016E-04  1.63879016E-04  1.63879016E-04  1.63879016E-04  1.63879016E-04  1.63879016E-04  1.63879016E-04  1.63879016E-04  1.63879016E-04  1.72431508E-04
      4.62201315E-05  6.36046461E-05  9.51862603E-05  1.22837053E-04  1.45818587E-04  1.99010421E-04  2.39045155E-04  1.63879016E-04  1.63879016E-04  1.63879016E-04  1.63879016E-04  1.63879016E-04  1.63879016E-04  1.63879016E-04  1.63879016E-04  1.63879016E-04  1.63879016E-04  1.63879016E-04  1.63879016E-04  1.63879016E-04  1.63879016E-04  1.63879016E-04  1.15928669E-04  1.28488871E-04  1.32763962E-04  1.33658294E-04  1.28778280E-04  1.27750580E-04  1.47168597E-04  1.94359047E-04  2.43258852E-04  2.21344977E-04  1.80106377E-04  1.41200333E-04  1.13283721E-04  1.00261503E-04  8.34992388E-05  7.36007933E-05  5.89910778E-05  5.07979021E-05  4.46072991E-05  3.36471603E-05  2.35101925E-05  1.94850127E-05  1.61321750E-05  1.40925367E-05  1.44857549E-05  1.88358954E-05  2.88834781E-05  5.18360102E-05  1.63879016E-04  1.63879016E-04  1.06381056E-04  1.32683388E-04  1.42346646E-04  1.56927519E-04  2.27350334E-04  3.11667565E-04  4.49401094E-04  4.86510107E-04  4.64589015E-04  5.18797548E-04  5.18613553E-04  5.16303291E-04  6.36826386E-04  6.62213075E-04  5.64716815E-04  5.05023578E-04  4.19644377E-04  3.51874856E-04  2.70273827E-04  2.04773067E-04  1.53147776E-04  1.03823979E-04  7.09404630E-05  6.08437476E-05  5.49353354E-05  5.37652522E-05  4.32177076E-05  3.24201283E-05  2.80228087E-05  2.79800588E-05  3.30516414E-05  3.73778967E-05  4.79058399E-05  6.10967909E-05  6.30926661E-05  7.17953226E-05  9.66175357E-05  1.27606501E-04  1.51266519E-04  1.97370799E-04  2.34485022E-04  2.45475443E-04  2.83296074E-04  3.18426988E-04  4.39479161E-04  5.29980753E-04  5.29039069E-04  5.07838151E-04  4.56317619E-04  3.32817552E-04  2.36354041E-04  1.91001469E-04  1.20485303E-04  7.80562914E-05  5.29735953E-05  4.44407851E-05  5.20072863E-05  5.92977522E-05  5.47967174E-05  6.16819088E-05  6.92581380E-05  1.03623235E-04  1.29272812E-04  1.44157995E-04  1.47670304E-04  1.75529334E-04  2.22105606E-04  2.19572772E-04  1.91079671E-04  1.84446064E-04  1.63879016E-04  1.63879016E-04  1.63879016E-04  1.63879016E-04  1.63879016E-04  1.63879016E-04  1.63879016E-04  1.63879016E-04  1.63879016E-04  1.63879016E-04  1.63879016E-04  1.63879016E-04  1.63879016E-04  1.63879016E-04  1.63879016E-04  1.63879016E-04  1.65524601E-04  1.63412478E-04
      5.16377040E-05  6.99202719E-05  1.00121157E-04  1.23989768E-04  1.52703971E-04  1.98726193E-04  2.35358311E-04  2.35441184E-04  1.98768248E-04  1.63879016E-04  1.63879016E-04  1.63879016E-04  1.63879016E-04  1.63879016E-04  1.63879016E-04  1.63879016E-04  1.63879016E-04  1.63879016E-04  1.63879016E-04  1.63879016E-04  1.63879016E-04  9.41335384E-05  1.19746233E-04  1.22030317E-04  1.35822091E-04  1.36718503E-04  1.31824243E-04  1.24736762E-04  1.50942433E-04  1.76568632E-04  2.28638717E-04  1.89116967E-04  1.37616778E-04  1.08581764E-04  9.20869425E-05  8.20340356E-05  7.19169402E-05  6.45829568E-05  5.06828073E-05  4.06128966E-05  3.12713491E-05  2.20242891E-05  1.56780643E-05  1.29926339E-05  1.12601465E-05  1.23054451E-05  1.60790441E-05  1.86495163E-05  1.63879016E-04  1.63879016E-04  1.63879016E-04  1.63879016E-04  1.63879016E-04  9.86381201E-05  1.20359888E-04  1.35020819E-04  1.84069344E-04  2.44864932E-04  3.42323765E-04  3.69682122E-04  3.71247355E-04  3.57923505E-04  3.65594315E-04  3.57815647E-04  4.47917962E-04  5.44037437E-04  4.56387294E-04  4.40724747E-04  3.83654929E-04  3.08841030E-04  2.17806111E-04  1.70486994E-04  1.37813273E-04  9.32311304E-05  6.58906720E-05  5.64789552E-05  4.96340726E-05  5.32192353E-05  4.19797216E-05  3.07256378E-05  2.53203416E-05  2.51076308E-05  2.79054766E-05  3.19898609E-05  3.99073469E-05  4.98103873E-05  5.03463634E-05  5.79009829E-05  7.23630947E-05  9.08338043E-05  1.04084560E-04  1.27283740E-04  1.72052969E-04  2.02581024E-04  2.78459920E-04  3.44216067E-04  4.76605754E-04  6.38351659E-04  6.77513890E-04  6.67623361E-04  5.68518997E-04  4.48295439E-04  2.96514336E-04  2.10798709E-04  1.42161254E-04  7.62720156E-05  4.96192406E-05  3.75539203E-05  3.79907069E-05  4.33678069E-05  4.87453144E-05  5.80501910E-05  7.01641984E-05  1.04879517E-04  1.36614224E-04  1.63022240E-04  1.70226951E-04  1.87972415E-04  2.39362431E-04  2.67509138E-04  2.46350333E-04  2.12572937E-04  1.63879016E-04  1.63879016E-04  1.63879016E-04  1.63879016E-04  1.63879016E-04  1.63879016E-04  1.63879016E-04  1.63879016E-04  1.63879016E-04  1.63879016E-04  1.63879016E-04  1.63879016E-04  1.63879016E-04  1.63879016E-04  1.18759905E-04  1.31970533E-04  1.23298320E-04  1.18714408E-04
      5.73014113E-05  7.23105477E-05  9.83981008E-05  1.31422683E-04  1.48110834E-04  1.94676177E-04  2.23855212E-04  2.18801681E-04  2.30429316E-04  2.39444300E-04  1.90845152E-04  1.63879016E-04  1.63879016E-04  1.63879016E-04  1.63879016E-04  1.63879016E-04  8.57615014E-05  8.48137570E-05  7.90937847E-05  7.91144557E-05  9.07200156E-05  1.03094288E-04  1.17576783E-04  1.28643034E-04  1.48163235E-04  1.42918536E-04  1.32039757E-04  1.26706349E-04  1.38268311E-04  1.48430845E-04  1.78337854E-04  1.60411786E-04  1.13702721E-04  8.64851390E-05  7.33219495E-05  7.13532427E-05  6.02482760E-05  5.04528216E-05  3.53512951E-05  2.87737239E-05  2.20448819E-05  1.64336234E-05  1.24851649E-05  1.00623856E-05  1.04260271E-05  1.27218245E-05  1.57975519E-05  1.63879016E-04  1.63879016E-04  1.63879016E-04  1.63879016E-04  1.63879016E-04  1.63879016E-04  1.63879016E-04  1.03179387E-04  1.19438773E-04  1.54417416E-04  1.88741193E-04  2.64050323E-04  2.94841710E-04  3.06670234E-04  3.26239620E-04  3.33111500E-04  2.94517813E-04  3.38090700E-04  4.35599417E-04  4.40741685E-04  4.48381441E-04  3.56803648E-04  2.69520475E-04  2.25195923E-04  1.74403467E-04  1.26998028E-04  8.91169548E-05  6.46135231E-05  5.47673662E-05  4.73046348E-05  4.64679215E-05  4.43269055E-05  2.82951514E-05  2.12806062E-05  2.17681281E-05  2.19933499E-05  2.57033698E-05  3.20244944E-05  4.22700869E-05  4.29563406E-05  4.86442987E-05  5.49030665E-05  6.95412746E-05  8.37674015E-05  9.55970027E-05  1.49501662E-04  1.87060417E-04  2.68950127E-04  3.79981095E-04  4.78094968E-04  6.28730515E-04  7.36680697E-04  7.95651227E-04  6.69256551E-04  5.17253065E-04  3.76168115E-04  2.42696173E-04  1.44902093E-04  7.40881223E-05  4.98644040E-05  4.13547896E-05  4.26273909E-05  3.95795141E-05  5.35442814E-05  6.30260765E-05  7.13764966E-05  1.01611091E-04  1.45388112E-04  1.81495503E-04  2.00983864E-04  2.02942261E-04  2.19118185E-04  2.50015059E-04  2.55460560E-04  2.19715905E-04  1.63879016E-04  1.63879016E-04  1.63879016E-04  1.63879016E-04  1.63879016E-04  1.63879016E-04  2.63298891E-04  2.69707292E-04  2.42253300E-04  1.97220434E-04  1.65712801E-04  1.62550758E-04  1.33997703E-04  1.16543299E-04  1.05140316E-04  1.05074483E-04  9.72470443E-05  9.16971039E-05
      6.90898378E-05  8.24723029E-05  1.05189116E-04  1.38279182E-04  1.77458322E-04  2.12699277E-04  2.29007099E-04  2.31381549E-04  2.58799817E-04  2.64936127E-04  2.14747852E-04  1.82574280E-04  1.51510365E-04  1.24650236E-04  1.05288185E-04  1.00100238E-04  9.22090694E-05  8.65147013E-05  7.85379598E-05  7.65601362E-05  8.74809703E-05  1.01172802E-04  1.06865067E-04  1.26479383E-04  1.40658900E-04  1.37261057E-04  1.26288971E-04  1.11618559E-04  1.09966015E-04  1.10831978E-04  1.33952068E-04  1.16097042E-04  9.10676317E-05  7.21875695E-05  5.72510398E-05  5.07940640E-05  3.31824049E-05  2.55056693E-05  1.87018650E-05  1.76764934E-05  1.63648001E-05  1.42832641E-05  1.30048893E-05  1.06989164E-05  1.12181815E-05  1.63879016E-04  1.63879016E-04  1.63879016E-04  1.63879016E-04  1.63879016E-04  1.63879016E-04  1.63879016E-04  1.63879016E-04  1.63879016E-04  1.63879016E-04  1.03985381E-04  1.29776745E-04  1.59082920E-04  2.10647937E-04  2.82341527E-04  3.17673141E-04  3.23376502E-04  3.45335575E-04  3.38406797E-04  3.55062075E-04  4.09542263E-04  4.26815008E-04  4.01859084E-04  3.63149302E-04  3.01550521E-04  2.46394775E-04  1.81165859E-04  1.24543003E-04  9.14764241E-05  6.91831592E-05  5.57816420E-05  4.88857913E-05  4.26870720E-05  4.01397810E-05  2.63822203E-05  2.03092659E-05  1.87460009E-05  1.75876721E-05  2.11166989E-05  2.68486401E-05  3.19797873E-05  3.55140983E-05  3.91420544E-05  4.51913947E-05  5.77717328E-05  7.51177140E-05  9.28438603E-05  1.28707674E-04  1.74174173E-04  2.58414599E-04  3.58020887E-04  4.54769062E-04  6.32509938E-04  7.57804839E-04  7.59403629E-04  6.58308156E-04  5.79277345E-04  4.16262104E-04  2.67831230E-04  1.51205750E-04  7.86049059E-05  5.41184090E-05  5.01640097E-05  5.49418546E-05  5.16958462E-05  5.49721444E-05  6.41584193E-05  8.33370505E-05  1.16371397E-04  1.55149901E-04  1.87018741E-04  2.06705037E-04  1.82502758E-04  2.05406439E-04  2.15291628E-04  2.02197436E-04  2.01209055E-04  1.63879016E-04  1.63879016E-04  1.63879016E-04  1.63879016E-04  1.63879016E-04  3.00555752E-04  3.22648528E-04  3.15112440E-04  2.99892825E-04  2.52866535E-04  2.01462724E-04  1.85675046E-04  1.51431610E-04  1.27268329E-04  1.04787148E-04  8.71956872E-05  8.00014968E-05  7.76940069E-05
      8.52654266E-05  9.07852373E-05  1.13947935E-04  1.42746299E-04  1.70478728E-04  2.07671052E-04  2.27801080E-04  2.52626982E-04  2.81421613E-04  2.87273666E-04  2.27959870E-04  1.91505125E-04  1.55351154E-04  1.26946106E-04  1.04056482E-04  9.60020843E-05  8.52499434E-05  8.06588505E-05  7.80579867E-05  7.36168440E-05  8.26678151E-05  9.05163470E-05  9.10749077E-05  1.15304312E-04  1.28704924E-04  1.12059126E-04  1.11175985E-04  1.02790349E-04  8.47952251E-05  7.84949661E-05  8.36236650E-05  7.87801619E-05  6.86637941E-05  5.47024902E-05  4.54870824E-05  3.74996380E-05  2.31560280E-05  1.48982181E-05  1.10378342E-05  1.14231907E-05  1.28895681E-05  1.35005821E-05  1.38290661E-05  1.21696221E-05  1.63879016E-04  1.63879016E-04  1.63879016E-04  1.63879016E-04  1.63879016E-04  1.63879016E-04  1.63879016E-04  1.63879016E-04  1.63879016E-04  1.63879016E-04  1.63879016E-04  1.63879016E-04  1.26880812E-04  1.60465454E-04  1.79101378E-04  2.43264658E-04  2.69143493E-04  2.73533515E-04  2.96154903E-04  2.95035541E-04  2.98263709E-04  3.70161491E-04  4.11345944E-04  3.73822433E-04  3.63804895E-04  2.89170508E-04  2.44232157E-04  1.73456341E-04  1.22115351E-04  8.87839124E-05  6.32656011E-05  5.02106159E-05  4.53893008E-05  3.96198848E-05  3.78268887E-05  2.50266912E-05  1.81563446E-05  1.60857580E-05  1.63093864E-05  2.06193235E-05  2.56051171E-05  2.89001218E-05  3.19907085E-05  3.62998435E-05  4.35717011E-05  5.26195545E-05  6.79258956E-05  9.21667306E-05  1.24315178E-04  1.75351743E-04  2.68586737E-04  3.75115167E-04  4.53305925E-04  6.37683959E-04  7.59692979E-04  7.27830105E-04  6.80217112E-04  6.16231526E-04  4.84129239E-04  3.16882739E-04  1.82384130E-04  9.38204830E-05  5.99926570E-05  5.41228655E-05  5.83561414E-05  5.95166603E-05  5.63371832E-05  7.13338377E-05  1.06236519E-04  1.26748375E-04  1.50148902E-04  1.66359998E-04  1.82471704E-04  1.78569200E-04  1.98029913E-04  1.86614576E-04  1.71064545E-04  1.67740145E-04  1.68525628E-04  1.63879016E-04  1.63879016E-04  1.63879016E-04  3.05008929E-04  3.45102890E-04  3.72995564E-04  3.70297814E-04  3.34760174E-04  2.91876437E-04  2.57888227E-04  2.21503258E-04  1.74472763E-04  1.33325302E-04  1.05151077E-04  9.26910216E-05  7.30589090E-05  6.80872836E-05
      8.16941465E-05  8.98521248E-05  1.02664191E-04  1.25430437E-04  1.53924659E-04  2.08553087E-04  2.37656059E-04  2.40521040E-04  2.76789971E-04  2.77425919E-04  2.06834156E-04  1.78928909E-04  1.56639508E-04  1.37129784E-04  9.60012185E-05  7.29619933E-05  6.88934233E-05  6.76887430E-05  6.03986919E-05  6.67857603E-05  7.14065100E-05  8.11778737E-05  8.77314305E-05  1.13362017E-04  1.14128015E-04  1.00362937E-04  9.42453844E-05  8.11695645E-05  6.32998490E-05  5.96687678E-05  6.04761262E-05  5.28264645E-05  4.87606558E-05  4.13537709E-05  3.39879625E-05  2.64484934E-05  1.57198647E-05  1.06621292E-05  8.70395888E-06  9.97179995E-06  1.19306205E-05  1.51982704E-05  1.58474813E-05  1.63879016E-04  1.63879016E-04  1.63879016E-04  1.63879016E-04  1.63879016E-04  1.63879016E-04  1.63879016E-04  1.63879016E-04  1.63879016E-04  1.63879016E-04  1.63879016E-04  1.63879016E-04  1.63879016E-04  1.34892471E-04  1.64331519E-04  1.89569648E-04  2.23318450E-04  2.33507410E-04  2.31367841E-04  2.37948727E-04  2.50749261E-04  2.81556626E-04  3.43809632E-04  3.82800790E-04  3.60781123E-04  3.39681195E-04  2.65963783E-04  2.22213203E-04  1.72729138E-04  1.33852489E-04  9.23057305E-05  6.45028485E-05  4.92040235E-05  4.13806592E-05  3.88043445E-05  3.59553160E-05  2.40296849E-05  1.81519972E-05  1.61475327E-05  1.71907923E-05  1.98782254E-05  2.27479741E-05  2.57465326E-05  2.86534705E-05  3.60261838E-05  4.54768524E-05  5.23617528E-05  6.37718986E-05  9.23116677E-05  1.24910672E-04  2.05516044E-04  3.46881134E-04  4.37706389E-04  4.93735191E-04  6.79134682E-04  8.12630809E-04  7.97824177E-04  7.77722336E-04  6.71787420E-04  5.32580016E-04  3.30914860E-04  1.63879016E-04  1.63879016E-04  1.63879016E-04  1.63879016E-04  4.94698070E-05  5.33796228E-05  6.28490016E-05  7.98538022E-05  1.04577615E-04  1.23730832E-04  1.31265318E-04  1.37226511E-04  1.24226397E-04  1.45350059E-04  1.75873691E-04  1.89718237E-04  1.83936223E-04  1.81202995E-04  1.87963320E-04  1.63879016E-04  2.33876766E-04  2.84765469E-04  3.58355959E-04  4.49690095E-04  4.57717106E-04  3.98539472E-04  3.82316997E-04  3.91537847E-04  3.42201703E-04  2.54149607E-04  2.03100877E-04  1.61694159E-04  1.14086914E-04  8.92226235E-05  7.22470577E-05  6.47599518E-05
      9.03660039E-05  9.50504109E-05  1.16832904E-04  1.46002465E-04  1.75739900E-04  1.85289653E-04  2.27112600E-04  2.26295408E-04  2.44773983E-04  2.37322703E-04  1.82023679E-04  1.69638617E-04  1.55548172E-04  1.22395286E-04  7.92663996E-05  6.09675481E-05  5.88076473E-05  6.19028724E-05  5.45124349E-05  5.57511994E-05  6.09652161E-05  7.33579946E-05  9.03719265E-05  1.03534636E-04  1.03028251E-04  8.29869241E-05  7.40827309E-05  6.55080585E-05  5.23767012E-05  4.87619982E-05  4.73191212E-05  3.84324667E-05  3.59614023E-05  3.14514000E-05  2.27814089E-05  1.58323492E-05  1.18977341E-05  8.82124641E-06  8.24715426E-06  9.01176099E-06  1.20469685E-05  1.63879016E-04  1.63879016E-04  1.63879016E-04  1.63879016E-04  1.63879016E-04  1.63879016E-04  1.63879016E-04  1.63879016E-04  1.63879016E-04  1.63879016E-04  1.63879016E-04  1.63879016E-04  1.63879016E-04  1.63879016E-04  1.63879016E-04  1.63879016E-04  1.80114715E-04  2.01285977E-04  2.21010530E-04  2.36681022E-04  2.37822998E-04  2.20175731E-04  2.22312752E-04  2.13315318E-04  2.68263306E-04  3.09338415E-04  3.06391652E-04  2.78709369E-04  2.49498204E-04  2.26435717E-04  1.63336721E-04  1.38463642E-04  9.51017573E-05  6.75070041E-05  5.05376156E-05  4.25992694E-05  4.14063215E-05  3.56827877E-05  2.44079383E-05  2.03255222E-05  2.06230434E-05  1.91812942E-05  1.89388029E-05  2.31745635E-05  2.35042226E-05  2.49584737E-05  3.23793502E-05  4.30086729E-05  5.19950663E-05  6.18879785E-05  8.83642933E-05  1.28813030E-04  2.46871379E-04  4.30874235E-04  1.63879016E-04  1.63879016E-04  1.63879016E-04  9.44463944E-04  9.00872867E-04  8.17953842E-04  7.88479229E-04  5.98646468E-04  1.63879016E-04  1.63879016E-04  1.63879016E-04  1.63879016E-04  1.63879016E-04  1.63879016E-04  5.10018363E-05  6.41366132E-05  8.32230726E-05  9.51899201E-05  9.78892640E-05  1.03156679E-04  9.20858001E-05  8.13766019E-05  9.72897833E-05  1.24678365E-04  1.52395602E-04  1.57610659E-04  1.70104948E-04  1.81098178E-04  2.22228919E-04  2.55267922E-04  3.24759516E-04  4.46997670E-04  4.86904464E-04  5.38624066E-04  4.99333080E-04  5.10757032E-04  4.91686107E-04  4.08803666E-04  3.04711168E-04  2.04906799E-04  1.39730560E-04  9.66201478E-05  8.44172246E-05  7.38378876E-05  6.42418163E-05
      1.03635961E-04  1.18341573E-04  1.30699438E-04  1.52497887E-04  1.67031307E-04  1.89942686E-04  2.13351406E-04  2.18429923E-04  2.14029758E-04  1.95449189E-04  1.59884323E-04  1.27783613E-04  1.10325964E-04  7.71002669E-05  5.47147829E-05  4.77326539E-05  4.75420384E-05  4.90552047E-05  4.50373045E-05  4.83774747E-05  5.57143649E-05  6.81819802E-05  9.53820054E-05  1.08944099E-04  9.97268362E-05  7.52976266E-05  6.92889080E-05  5.84925947E-05  4.83126532E-05  4.12799382E-05  3.98526354E-05  2.92609420E-05  2.41989383E-05  2.04743410E-05  1.57181548E-05  1.25075085E-05  9.94682523E-06  8.89947114E-06  8.75605383E-06  1.63879016E-04  1.63879016E-04  1.63879016E-04  1.63879016E-04  1.63879016E-04  1.63879016E-04  1.63879016E-04  1.63879016E-04  1.63879016E-04  1.63879016E-04  1.63879016E-04  1.63879016E-04  1.63879016E-04  1.63879016E-04  1.63879016E-04  1.63879016E-04  1.63879016E-04  1.63879016E-04  1.62448428E-04  1.97960355E-04  1.97080532E-04  2.06415702E-04  1.83494252E-04  1.68990679E-04  1.83185519E-04  1.78309449E-04  2.03865915E-04  2.55934254E-04  2.49934499E-04  2.65349052E-04  2.56141851E-04  2.31283091E-04  1.74633329E-04  1.48519728E-04  1.10585519E-04  8.07721153E-05  6.21050785E-05  5.39928551E-05  4.87146572E-05  4.01435136E-05  2.97371444E-05  2.46618438E-05  2.44659514E-05  1.96029250E-05  2.03122054E-05  2.20125003E-05  2.16092812E-05  2.21290466E-05  2.73792448E-05  3.40680490E-05  3.57316676E-05  4.29671891E-05  7.89857077E-05  1.41339886E-04  2.70655641E-04  5.39730303E-04  1.63879016E-04  1.63879016E-04  1.63879016E-04  1.63879016E-04  9.75775358E-04  8.01163842E-04  7.30326050E-04  1.63879016E-04  1.63879016E-04  1.63879016E-04  1.63879016E-04  1.63879016E-04  1.63879016E-04  1.63879016E-04  1.63879016E-04  1.63879016E-04  7.76917077E-05  8.25122988E-05  7.80931514E-05  6.98762160E-05  5.95783276E-05  5.25871983E-05  5.57467210E-05  7.27992156E-05  1.03223967E-04  1.31381879E-04  1.60127296E-04  1.62947181E-04  1.91662533E-04  2.28651974E-04  2.93633027E-04  4.20157099E-04  5.33943239E-04  5.99783845E-04  5.35383646E-04  5.25741663E-04  5.17929322E-04  4.46341903E-04  2.87637697E-04  1.90434555E-04  1.25763167E-04  8.60693690E-05  7.81118652E-05  7.24721540E-05  6.28466223E-05