# File generated by Flopy version 3.9.1 on 02/28/2025 at 08:01:47.
BEGIN options
END options

BEGIN packages
  CHD6  test.chd  chd_0
  NPF6  test.npf  npf
  DIS6  test.dis  dis
  OC6  test.oc  oc
  IC6  test.ic  ic
END packages

