MODPATH_TIMESERIES_FILE         7         2
    2   0.0000000000E+00  0.0000000000E+00  0.0000000000E+00  0.0000000000E+00
END HEADER
       0       1  0.0000000000E+00         1    1         1    157334  0.8000000000E+00  0.5000000000E+00  0.3334690000E+00  0.1707000000E+03  0.9975000000E+02 -0.6999999997E+01        17
       0       1  0.0000000000E+00         2    2         1    284734  0.8000000000E+00  0.5000000000E+00  0.1017255000E-03  0.1707000000E+03  0.9975000000E+02 -0.9000000001E+01        30
       1       1  0.1000000000E-01         1    1         1    157334  0.8000000000E+00  0.5000000000E+00  0.3334690000E+00  0.1707000000E+03  0.9975000000E+02 -0.6999999997E+01        17
       1       1  0.1000000000E-01         2    2         1    284734  0.8000000000E+00  0.5000000042E+00  0.1017170873E-03  0.1707000000E+03  0.9975000001E+02 -0.9000000002E+01        30
       2       1  0.2000000000E-01         1    1         1    157334  0.8000000000E+00  0.5000000000E+00  0.3334690000E+00  0.1707000000E+03  0.9975000000E+02 -0.6999999997E+01        17
       2       1  0.2000000000E-01         2    2         1    284734  0.8000000000E+00  0.5000000084E+00  0.1017086745E-03  0.1707000000E+03  0.9975000001E+02 -0.9000000004E+01        30
       3       1  0.3000000000E-01         1    1         1    157334  0.8000000000E+00  0.5000000000E+00  0.3334690000E+00  0.1707000000E+03  0.9975000000E+02 -0.6999999997E+01        17
       3       1  0.3000000000E-01         2    2         1    284734  0.8000000000E+00  0.5000000126E+00  0.1017002618E-03  0.1707000000E+03  0.9975000002E+02 -0.9000000005E+01        30
       4       1  0.4000000000E-01         1    1         1    157334  0.8000000000E+00  0.5000000000E+00  0.3334690000E+00  0.1707000000E+03  0.9975000000E+02 -0.6999999997E+01        17
       4       1  0.4000000000E-01         2    2         1    284734  0.8000000000E+00  0.5000000168E+00  0.1016918491E-03  0.1707000000E+03  0.9975000003E+02 -0.9000000006E+01        30
       5       1  0.5000000000E-01         1    1         1    157334  0.8000000000E+00  0.5000000000E+00  0.3334690000E+00  0.1707000000E+03  0.9975000000E+02 -0.6999999997E+01        17
       5       1  0.5000000000E-01         2    2         1    284734  0.8000000000E+00  0.5000000210E+00  0.1016834363E-03  0.1707000000E+03  0.9975000003E+02 -0.9000000008E+01        30
       6       1  0.6000000000E-01         1    1         1    157334  0.8000000000E+00  0.5000000000E+00  0.3334690000E+00  0.1707000000E+03  0.9975000000E+02 -0.6999999997E+01        17
       6       1  0.6000000000E-01         2    2         1    284734  0.8000000000E+00  0.5000000252E+00  0.1016750236E-03  0.1707000000E+03  0.9975000004E+02 -0.9000000009E+01        30
       7       1  0.7000000000E-01         1    1         1    157334  0.8000000000E+00  0.5000000000E+00  0.3334689999E+00  0.1707000000E+03  0.9975000000E+02 -0.6999999997E+01        17
       7       1  0.7000000000E-01         2    2         1    284734  0.8000000000E+00  0.5000000294E+00  0.1016666109E-03  0.1707000000E+03  0.9975000004E+02 -0.9000000010E+01        30
       8       1  0.8000000000E-01         1    1         1    157334  0.8000000000E+00  0.5000000000E+00  0.3334689999E+00  0.1707000000E+03  0.9975000000E+02 -0.6999999997E+01        17
       8       1  0.8000000000E-01         2    2         1    284734  0.8000000000E+00  0.5000000336E+00  0.1016581981E-03  0.1707000000E+03  0.9975000005E+02 -0.9000000011E+01        30
       9       1  0.9000000000E-01         1    1         1    157334  0.8000000000E+00  0.5000000000E+00  0.3334689999E+00  0.1707000000E+03  0.9975000000E+02 -0.6999999997E+01        17
       9       1  0.9000000000E-01         2    2         1    284734  0.8000000000E+00  0.5000000378E+00  0.1016497854E-03  0.1707000000E+03  0.9975000006E+02 -0.9000000013E+01        30
      10       1  0.1000000000E+00         1    1         1    157334  0.8000000000E+00  0.5000000000E+00  0.3334689999E+00  0.1707000000E+03  0.9975000000E+02 -0.6999999997E+01        17
      10       1  0.1000000000E+00         2    2         1    284734  0.8000000000E+00  0.5000000420E+00  0.1016413727E-03  0.1707000000E+03  0.9975000006E+02 -0.9000000014E+01        30
      11       1  0.1100000000E+00         1    1         1    157334  0.8000000000E+00  0.5000000000E+00  0.3334689999E+00  0.1707000000E+03  0.9975000000E+02 -0.6999999997E+01        17
      11       1  0.1100000000E+00         2    2         1    284734  0.8000000000E+00  0.5000000462E+00  0.1016329599E-03  0.1707000000E+03  0.9975000007E+02 -0.9000000015E+01        30
      12       1  0.1200000000E+00         1    1         1    157334  0.8000000000E+00  0.5000000000E+00  0.3334689999E+00  0.1707000000E+03  0.9975000000E+02 -0.6999999997E+01        17
      12       1  0.1200000000E+00         2    2         1    284734  0.8000000000E+00  0.5000000504E+00  0.1016245472E-03  0.1707000000E+03  0.9975000008E+02 -0.9000000016E+01        30
      13       1  0.1300000000E+00         1    1         1    157334  0.8000000000E+00  0.5000000000E+00  0.3334689999E+00  0.1707000000E+03  0.9975000000E+02 -0.6999999997E+01        17
      13       1  0.1300000000E+00         2    2         1    284734  0.8000000000E+00  0.5000000546E+00  0.1016161344E-03  0.1707000000E+03  0.9975000008E+02 -0.9000000018E+01        30
      14       1  0.1400000000E+00         1    1         1    157334  0.8000000000E+00  0.5000000000E+00  0.3334689999E+00  0.1707000000E+03  0.9975000000E+02 -0.6999999997E+01        17
      14       1  0.1400000000E+00         2    2         1    284734  0.8000000000E+00  0.5000000589E+00  0.1016077217E-03  0.1707000000E+03  0.9975000009E+02 -0.9000000019E+01        30
      15       1  0.1500000000E+00         1    1         1    157334  0.8000000000E+00  0.5000000000E+00  0.3334689999E+00  0.1707000000E+03  0.9975000000E+02 -0.6999999997E+01        17
      15       1  0.1500000000E+00         2    2         1    284734  0.8000000000E+00  0.5000000631E+00  0.1015993090E-03  0.1707000000E+03  0.9975000009E+02 -0.9000000020E+01        30
      16       1  0.1600000000E+00         1    1         1    157334  0.8000000000E+00  0.5000000000E+00  0.3334689999E+00  0.1707000000E+03  0.9975000000E+02 -0.6999999997E+01        17
      16       1  0.1600000000E+00         2    2         1    284734  0.8000000000E+00  0.5000000673E+00  0.1015908962E-03  0.1707000000E+03  0.9975000010E+02 -0.9000000021E+01        30
      17       1  0.1700000000E+00         1    1         1    157334  0.8000000000E+00  0.5000000000E+00  0.3334689999E+00  0.1707000000E+03  0.9975000000E+02 -0.6999999997E+01        17
      17       1  0.1700000000E+00         2    2         1    284734  0.8000000000E+00  0.5000000715E+00  0.1015824835E-03  0.1707000000E+03  0.9975000011E+02 -0.9000000023E+01        30
      18       1  0.1800000000E+00         1    1         1    157334  0.8000000000E+00  0.5000000000E+00  0.3334689999E+00  0.1707000000E+03  0.9975000000E+02 -0.6999999997E+01        17
      18       1  0.1800000000E+00         2    2         1    284734  0.8000000000E+00  0.5000000757E+00  0.1015740708E-03  0.1707000000E+03  0.9975000011E+02 -0.9000000024E+01        30
      19       1  0.1900000000E+00         1    1         1    157334  0.8000000000E+00  0.5000000000E+00  0.3334689999E+00  0.1707000000E+03  0.9975000000E+02 -0.6999999997E+01        17
      19       1  0.1900000000E+00         2    2         1    284734  0.8000000000E+00  0.5000000799E+00  0.1015656580E-03  0.1707000000E+03  0.9975000012E+02 -0.9000000025E+01        30
      20       1  0.2000000000E+00         1    1         1    157334  0.8000000000E+00  0.5000000000E+00  0.3334689999E+00  0.1707000000E+03  0.9975000000E+02 -0.6999999997E+01        17
      20       1  0.2000000000E+00         2    2         1    284734  0.8000000000E+00  0.5000000841E+00  0.1015572453E-03  0.1707000000E+03  0.9975000013E+02 -0.9000000026E+01        30
      21       1  0.2100000000E+00         1    1         1    157334  0.8000000000E+00  0.5000000000E+00  0.3334689998E+00  0.1707000000E+03  0.9975000000E+02 -0.6999999997E+01        17
      21       1  0.2100000000E+00         2    2         1    284734  0.8000000000E+00  0.5000000883E+00  0.1015488326E-03  0.1707000000E+03  0.9975000013E+02 -0.9000000028E+01        30
      22       1  0.2200000000E+00         1    1         1    157334  0.8000000000E+00  0.5000000000E+00  0.3334689998E+00  0.1707000000E+03  0.9975000000E+02 -0.6999999997E+01        17
      22       1  0.2200000000E+00         2    2         1    284734  0.8000000000E+00  0.5000000925E+00  0.1015404198E-03  0.1707000000E+03  0.9975000014E+02 -0.9000000029E+01        30
      23       1  0.2300000000E+00         1    1         1    157334  0.8000000000E+00  0.5000000000E+00  0.3334689998E+00  0.1707000000E+03  0.9975000000E+02 -0.6999999997E+01        17
      23       1  0.2300000000E+00         2    2         1    284734  0.8000000000E+00  0.5000000967E+00  0.1015320071E-03  0.1707000000E+03  0.9975000015E+02 -0.9000000030E+01        30
      24       1  0.2400000000E+00         1    1         1    157334  0.8000000000E+00  0.5000000000E+00  0.3334689998E+00  0.1707000000E+03  0.9975000000E+02 -0.6999999997E+01        17
      24       1  0.2400000000E+00         2    2         1    284734  0.8000000000E+00  0.5000001009E+00  0.1015235944E-03  0.1707000000E+03  0.9975000015E+02 -0.9000000031E+01        30
      25       1  0.2500000000E+00         1    1         1    157334  0.8000000000E+00  0.5000000000E+00  0.3334689998E+00  0.1707000000E+03  0.9975000000E+02 -0.6999999997E+01        17
      25       1  0.2500000000E+00         2    2         1    284734  0.8000000000E+00  0.5000001051E+00  0.1015151816E-03  0.1707000000E+03  0.9975000016E+02 -0.9000000033E+01        30
      26       1  0.2600000000E+00         1    1         1    157334  0.8000000000E+00  0.5000000000E+00  0.3334689998E+00  0.1707000000E+03  0.9975000000E+02 -0.6999999997E+01        17
      26       1  0.2600000000E+00         2    2         1    284734  0.8000000000E+00  0.5000001093E+00  0.1015067689E-03  0.1707000000E+03  0.9975000016E+02 -0.9000000034E+01        30
      27       1  0.2700000000E+00         1    1         1    157334  0.8000000000E+00  0.5000000000E+00  0.3334689998E+00  0.1707000000E+03  0.9975000000E+02 -0.6999999997E+01        17
      27       1  0.2700000000E+00         2    2         1    284734  0.8000000000E+00  0.5000001135E+00  0.1014983561E-03  0.1707000000E+03  0.9975000017E+02 -0.9000000035E+01        30
      28       1  0.2800000000E+00         1    1         1    157334  0.8000000000E+00  0.5000000000E+00  0.3334689998E+00  0.1707000000E+03  0.9975000000E+02 -0.6999999997E+01        17
      28       1  0.2800000000E+00         2    2         1    284734  0.8000000000E+00  0.5000001177E+00  0.1014899434E-03  0.1707000000E+03  0.9975000018E+02 -0.9000000037E+01        30
      29       1  0.2900000000E+00         1    1         1    157334  0.8000000000E+00  0.5000000000E+00  0.3334689998E+00  0.1707000000E+03  0.9975000000E+02 -0.6999999997E+01        17
      29       1  0.2900000000E+00         2    2         1    284734  0.8000000000E+00  0.5000001219E+00  0.1014815307E-03  0.1707000000E+03  0.9975000018E+02 -0.9000000038E+01        30
      30       1  0.3000000000E+00         1    1         1    157334  0.8000000000E+00  0.5000000000E+00  0.3334689998E+00  0.1707000000E+03  0.9975000000E+02 -0.6999999997E+01        17
      30       1  0.3000000000E+00         2    2         1    284734  0.8000000000E+00  0.5000001261E+00  0.1014731179E-03  0.1707000000E+03  0.9975000019E+02 -0.9000000039E+01        30
      31       1  0.3100000000E+00         1    1         1    157334  0.8000000000E+00  0.5000000000E+00  0.3334689998E+00  0.1707000000E+03  0.9975000000E+02 -0.6999999997E+01        17
      31       1  0.3100000000E+00         2    2         1    284734  0.8000000000E+00  0.5000001303E+00  0.1014647052E-03  0.1707000000E+03  0.9975000020E+02 -0.9000000040E+01        30
      32       1  0.3200000000E+00         1    1         1    157334  0.8000000000E+00  0.5000000000E+00  0.3334689998E+00  0.1707000000E+03  0.9975000000E+02 -0.6999999997E+01        17
      32       1  0.3200000000E+00         2    2         1    284734  0.8000000000E+00  0.5000001345E+00  0.1014562925E-03  0.1707000000E+03  0.9975000020E+02 -0.9000000042E+01        30
      33       1  0.3300000000E+00         1    1         1    157334  0.8000000000E+00  0.5000000000E+00  0.3334689998E+00  0.1707000000E+03  0.9975000000E+02 -0.6999999997E+01        17
      33       1  0.3300000000E+00         2    2         1    284734  0.8000000000E+00  0.5000001387E+00  0.1014478797E-03  0.1707000000E+03  0.9975000021E+02 -0.9000000043E+01        30
      34       1  0.3400000000E+00         1    1         1    157334  0.8000000000E+00  0.5000000000E+00  0.3334689998E+00  0.1707000000E+03  0.9975000000E+02 -0.6999999997E+01        17
      34       1  0.3400000000E+00         2    2         1    284734  0.8000000000E+00  0.5000001429E+00  0.1014394670E-03  0.1707000000E+03  0.9975000021E+02 -0.9000000044E+01        30
      35       1  0.3500000000E+00         1    1         1    157334  0.8000000000E+00  0.5000000000E+00  0.3334689997E+00  0.1707000000E+03  0.9975000000E+02 -0.6999999997E+01        17
      35       1  0.3500000000E+00         2    2         1    284734  0.8000000000E+00  0.5000001471E+00  0.1014310542E-03  0.1707000000E+03  0.9975000022E+02 -0.9000000045E+01        30
      36       1  0.3600000000E+00         1    1         1    157334  0.8000000000E+00  0.5000000000E+00  0.3334689997E+00  0.1707000000E+03  0.9975000000E+02 -0.6999999997E+01        17
      36       1  0.3600000000E+00         2    2         1    284734  0.8000000000E+00  0.5000001513E+00  0.1014226415E-03  0.1707000000E+03  0.9975000023E+02 -0.9000000047E+01        30
      37       1  0.3700000000E+00         1    1         1    157334  0.8000000000E+00  0.5000000000E+00  0.3334689997E+00  0.1707000000E+03  0.9975000000E+02 -0.6999999997E+01        17
      37       1  0.3700000000E+00         2    2         1    284734  0.8000000000E+00  0.5000001555E+00  0.1014142288E-03  0.1707000000E+03  0.9975000023E+02 -0.9000000048E+01        30
      38       1  0.3800000000E+00         1    1         1    157334  0.8000000000E+00  0.5000000000E+00  0.3334689997E+00  0.1707000000E+03  0.9975000000E+02 -0.6999999997E+01        17
      38       1  0.3800000000E+00         2    2         1    284734  0.8000000000E+00  0.5000001597E+00  0.1014058160E-03  0.1707000000E+03  0.9975000024E+02 -0.9000000049E+01        30
      39       1  0.3900000000E+00         1    1         1    157334  0.8000000000E+00  0.5000000000E+00  0.3334689997E+00  0.1707000000E+03  0.9975000000E+02 -0.6999999997E+01        17
      39       1  0.3900000000E+00         2    2         1    284734  0.8000000000E+00  0.5000001639E+00  0.1013974033E-03  0.1707000000E+03  0.9975000025E+02 -0.9000000050E+01        30
      40       1  0.4000000000E+00         1    1         1    157334  0.8000000000E+00  0.5000000000E+00  0.3334689997E+00  0.1707000000E+03  0.9975000000E+02 -0.6999999997E+01        17
      40       1  0.4000000000E+00         2    2         1    284734  0.8000000000E+00  0.5000001681E+00  0.1013889906E-03  0.1707000000E+03  0.9975000025E+02 -0.9000000052E+01        30
      41       1  0.4100000000E+00         1    1         1    157334  0.8000000000E+00  0.5000000000E+00  0.3334689997E+00  0.1707000000E+03  0.9975000000E+02 -0.6999999997E+01        17
      41       1  0.4100000000E+00         2    2         1    284734  0.8000000000E+00  0.5000001723E+00  0.1013805778E-03  0.1707000000E+03  0.9975000026E+02 -0.9000000053E+01        30
      42       1  0.4200000000E+00         1    1         1    157334  0.8000000000E+00  0.5000000000E+00  0.3334689997E+00  0.1707000000E+03  0.9975000000E+02 -0.6999999997E+01        17
      42       1  0.4200000000E+00         2    2         1    284734  0.8000000000E+00  0.5000001766E+00  0.1013721651E-03  0.1707000000E+03  0.9975000026E+02 -0.9000000054E+01        30
      43       1  0.4300000000E+00         1    1         1    157334  0.8000000000E+00  0.5000000000E+00  0.3334689997E+00  0.1707000000E+03  0.9975000000E+02 -0.6999999997E+01        17
      43       1  0.4300000000E+00         2    2         1    284734  0.8000000000E+00  0.5000001808E+00  0.1013637523E-03  0.1707000000E+03  0.9975000027E+02 -0.9000000055E+01        30
      44       1  0.4400000000E+00         1    1         1    157334  0.8000000000E+00  0.5000000000E+00  0.3334689997E+00  0.1707000000E+03  0.9975000000E+02 -0.6999999997E+01        17
      44       1  0.4400000000E+00         2    2         1    284734  0.8000000000E+00  0.5000001850E+00  0.1013553396E-03  0.1707000000E+03  0.9975000028E+02 -0.9000000057E+01        30
      45       1  0.4500000000E+00         1    1         1    157334  0.8000000000E+00  0.5000000000E+00  0.3334689997E+00  0.1707000000E+03  0.9975000000E+02 -0.6999999997E+01        17
      45       1  0.4500000000E+00         2    2         1    284734  0.8000000000E+00  0.5000001892E+00  0.1013469269E-03  0.1707000000E+03  0.9975000028E+02 -0.9000000058E+01        30
      46       1  0.4600000000E+00         1    1         1    157334  0.8000000000E+00  0.5000000000E+00  0.3334689997E+00  0.1707000000E+03  0.9975000000E+02 -0.6999999997E+01        17
      46       1  0.4600000000E+00         2    2         1    284734  0.8000000000E+00  0.5000001934E+00  0.1013385141E-03  0.1707000000E+03  0.9975000029E+02 -0.9000000059E+01        30
      47       1  0.4700000000E+00         1    1         1    157334  0.8000000000E+00  0.5000000000E+00  0.3334689997E+00  0.1707000000E+03  0.9975000000E+02 -0.6999999997E+01        17
      47       1  0.4700000000E+00         2    2         1    284734  0.8000000000E+00  0.5000001976E+00  0.1013301014E-03  0.1707000000E+03  0.9975000030E+02 -0.9000000061E+01        30
      48       1  0.4800000000E+00         1    1         1    157334  0.8000000000E+00  0.5000000000E+00  0.3334689996E+00  0.1707000000E+03  0.9975000000E+02 -0.6999999997E+01        17
      48       1  0.4800000000E+00         2    2         1    284734  0.8000000000E+00  0.5000002018E+00  0.1013216887E-03  0.1707000000E+03  0.9975000030E+02 -0.9000000062E+01        30
      49       1  0.4900000000E+00         1    1         1    157334  0.8000000000E+00  0.5000000000E+00  0.3334689996E+00  0.1707000000E+03  0.9975000000E+02 -0.6999999997E+01        17
      49       1  0.4900000000E+00         2    2         1    284734  0.8000000000E+00  0.5000002060E+00  0.1013132759E-03  0.1707000000E+03  0.9975000031E+02 -0.9000000063E+01        30
      50       1  0.5000000000E+00         1    1         1    157334  0.8000000000E+00  0.5000000000E+00  0.3334689996E+00  0.1707000000E+03  0.9975000000E+02 -0.6999999997E+01        17
      50       1  0.5000000000E+00         2    2         1    284734  0.8000000000E+00  0.5000002102E+00  0.1013048632E-03  0.1707000000E+03  0.9975000032E+02 -0.9000000064E+01        30
      51       1  0.5100000000E+00         1    1         1    157334  0.8000000000E+00  0.5000000000E+00  0.3334689996E+00  0.1707000000E+03  0.9975000000E+02 -0.6999999997E+01        17
      51       1  0.5100000000E+00         2    2         1    284734  0.8000000000E+00  0.5000002144E+00  0.1012964504E-03  0.1707000000E+03  0.9975000032E+02 -0.9000000066E+01        30
      52       1  0.5200000000E+00         1    1         1    157334  0.8000000000E+00  0.5000000000E+00  0.3334689996E+00  0.1707000000E+03  0.9975000000E+02 -0.6999999997E+01        17
      52       1  0.5200000000E+00         2    2         1    284734  0.8000000000E+00  0.5000002186E+00  0.1012880377E-03  0.1707000000E+03  0.9975000033E+02 -0.9000000067E+01        30
      53       1  0.5300000000E+00         1    1         1    157334  0.8000000000E+00  0.5000000000E+00  0.3334689996E+00  0.1707000000E+03  0.9975000000E+02 -0.6999999997E+01        17
      53       1  0.5300000000E+00         2    2         1    284734  0.8000000000E+00  0.5000002228E+00  0.1012796250E-03  0.1707000000E+03  0.9975000033E+02 -0.9000000068E+01        30
      54       1  0.5400000000E+00         1    1         1    157334  0.8000000000E+00  0.5000000000E+00  0.3334689996E+00  0.1707000000E+03  0.9975000000E+02 -0.6999999997E+01        17
      54       1  0.5400000000E+00         2    2         1    284734  0.8000000000E+00  0.5000002270E+00  0.1012712122E-03  0.1707000000E+03  0.9975000034E+02 -0.9000000069E+01        30
      55       1  0.5500000000E+00         1    1         1    157334  0.8000000000E+00  0.5000000000E+00  0.3334689996E+00  0.1707000000E+03  0.9975000000E+02 -0.6999999997E+01        17
      55       1  0.5500000000E+00         2    2         1    284734  0.8000000000E+00  0.5000002312E+00  0.1012627995E-03  0.1707000000E+03  0.9975000035E+02 -0.9000000071E+01        30
      56       1  0.5600000000E+00         1    1         1    157334  0.8000000000E+00  0.5000000000E+00  0.3334689996E+00  0.1707000000E+03  0.9975000000E+02 -0.6999999997E+01        17
      56       1  0.5600000000E+00         2    2         1    284734  0.8000000000E+00  0.5000002354E+00  0.1012543868E-03  0.1707000000E+03  0.9975000035E+02 -0.9000000072E+01        30
      57       1  0.5700000000E+00         1    1         1    157334  0.8000000000E+00  0.5000000000E+00  0.3334689996E+00  0.1707000000E+03  0.9975000000E+02 -0.6999999997E+01        17
      57       1  0.5700000000E+00         2    2         1    284734  0.8000000000E+00  0.5000002396E+00  0.1012459740E-03  0.1707000000E+03  0.9975000036E+02 -0.9000000073E+01        30
      58       1  0.5800000000E+00         1    1         1    157334  0.8000000000E+00  0.5000000000E+00  0.3334689996E+00  0.1707000000E+03  0.9975000000E+02 -0.6999999997E+01        17
      58       1  0.5800000000E+00         2    2         1    284734  0.8000000000E+00  0.5000002438E+00  0.1012375613E-03  0.1707000000E+03  0.9975000037E+02 -0.9000000074E+01        30
      59       1  0.5900000000E+00         1    1         1    157334  0.8000000000E+00  0.5000000000E+00  0.3334689996E+00  0.1707000000E+03  0.9975000000E+02 -0.6999999997E+01        17
      59       1  0.5900000000E+00         2    2         1    284734  0.8000000000E+00  0.5000002480E+00  0.1012291485E-03  0.1707000000E+03  0.9975000037E+02 -0.9000000076E+01        30
      60       1  0.6000000000E+00         1    1         1    157334  0.8000000000E+00  0.5000000000E+00  0.3334689996E+00  0.1707000000E+03  0.9975000000E+02 -0.6999999997E+01        17
      60       1  0.6000000000E+00         2    2         1    284734  0.8000000000E+00  0.5000002522E+00  0.1012207358E-03  0.1707000000E+03  0.9975000038E+02 -0.9000000077E+01        30
      61       1  0.6100000000E+00         1    1         1    157334  0.8000000000E+00  0.5000000000E+00  0.3334689996E+00  0.1707000000E+03  0.9975000000E+02 -0.6999999997E+01        17
      61       1  0.6100000000E+00         2    2         1    284734  0.8000000000E+00  0.5000002564E+00  0.1012123231E-03  0.1707000000E+03  0.9975000038E+02 -0.9000000078E+01        30
      62       1  0.6200000000E+00         1    1         1    157334  0.8000000000E+00  0.5000000000E+00  0.3334689995E+00  0.1707000000E+03  0.9975000000E+02 -0.6999999997E+01        17
      62       1  0.6200000000E+00         2    2         1    284734  0.8000000000E+00  0.5000002606E+00  0.1012039103E-03  0.1707000000E+03  0.9975000039E+02 -0.9000000079E+01        30
      63       1  0.6300000000E+00         1    1         1    157334  0.8000000000E+00  0.5000000000E+00  0.3334689995E+00  0.1707000000E+03  0.9975000000E+02 -0.6999999997E+01        17
      63       1  0.6300000000E+00         2    2         1    284734  0.8000000000E+00  0.5000002648E+00  0.1011954976E-03  0.1707000000E+03  0.9975000040E+02 -0.9000000081E+01        30
      64       1  0.6400000000E+00         1    1         1    157334  0.8000000000E+00  0.5000000000E+00  0.3334689995E+00  0.1707000000E+03  0.9975000000E+02 -0.6999999997E+01        17
      64       1  0.6400000000E+00         2    2         1    284734  0.8000000000E+00  0.5000002690E+00  0.1011870848E-03  0.1707000000E+03  0.9975000040E+02 -0.9000000082E+01        30
      65       1  0.6500000000E+00         1    1         1    157334  0.8000000000E+00  0.5000000000E+00  0.3334689995E+00  0.1707000000E+03  0.9975000000E+02 -0.6999999997E+01        17
      65       1  0.6500000000E+00         2    2         1    284734  0.8000000000E+00  0.5000002732E+00  0.1011786721E-03  0.1707000000E+03  0.9975000041E+02 -0.9000000083E+01        30
      66       1  0.6600000000E+00         1    1         1    157334  0.8000000000E+00  0.5000000000E+00  0.3334689995E+00  0.1707000000E+03  0.9975000000E+02 -0.6999999997E+01        17
      66       1  0.6600000000E+00         2    2         1    284734  0.8000000000E+00  0.5000002774E+00  0.1011702594E-03  0.1707000000E+03  0.9975000042E+02 -0.9000000084E+01        30
      67       1  0.6700000000E+00         1    1         1    157334  0.8000000000E+00  0.5000000000E+00  0.3334689995E+00  0.1707000000E+03  0.9975000000E+02 -0.6999999997E+01        17
      67       1  0.6700000000E+00         2    2         1    284734  0.8000000000E+00  0.5000002816E+00  0.1011618466E-03  0.1707000000E+03  0.9975000042E+02 -0.9000000086E+01        30
      68       1  0.6800000000E+00         1    1         1    157334  0.8000000000E+00  0.5000000000E+00  0.3334689995E+00  0.1707000000E+03  0.9975000000E+02 -0.6999999997E+01        17
      68       1  0.6800000000E+00         2    2         1    284734  0.8000000000E+00  0.5000002858E+00  0.1011534339E-03  0.1707000000E+03  0.9975000043E+02 -0.9000000087E+01        30
      69       1  0.6900000000E+00         1    1         1    157334  0.8000000000E+00  0.5000000000E+00  0.3334689995E+00  0.1707000000E+03  0.9975000000E+02 -0.6999999997E+01        17
      69       1  0.6900000000E+00         2    2         1    284734  0.8000000000E+00  0.5000002901E+00  0.1011450211E-03  0.1707000000E+03  0.9975000044E+02 -0.9000000088E+01        30
      70       1  0.7000000000E+00         1    1         1    157334  0.8000000000E+00  0.5000000000E+00  0.3334689995E+00  0.1707000000E+03  0.9975000000E+02 -0.6999999997E+01        17
      70       1  0.7000000000E+00         2    2         1    284734  0.8000000000E+00  0.5000002943E+00  0.1011366084E-03  0.1707000000E+03  0.9975000044E+02 -0.9000000090E+01        30
      71       1  0.7100000000E+00         1    1         1    157334  0.8000000000E+00  0.5000000000E+00  0.3334689995E+00  0.1707000000E+03  0.9975000000E+02 -0.6999999997E+01        17
      71       1  0.7100000000E+00         2    2         1    284734  0.8000000000E+00  0.5000002985E+00  0.1011281957E-03  0.1707000000E+03  0.9975000045E+02 -0.9000000091E+01        30
      72       1  0.7200000000E+00         1    1         1    157334  0.8000000000E+00  0.5000000000E+00  0.3334689995E+00  0.1707000000E+03  0.9975000000E+02 -0.6999999997E+01        17
      72       1  0.7200000000E+00         2    2         1    284734  0.8000000000E+00  0.5000003027E+00  0.1011197829E-03  0.1707000000E+03  0.9975000045E+02 -0.9000000092E+01        30
      73       1  0.7300000000E+00         1    1         1    157334  0.8000000000E+00  0.5000000000E+00  0.3334689995E+00  0.1707000000E+03  0.9975000000E+02 -0.6999999997E+01        17
      73       1  0.7300000000E+00         2    2         1    284734  0.8000000000E+00  0.5000003069E+00  0.1011113702E-03  0.1707000000E+03  0.9975000046E+02 -0.9000000093E+01        30
      74       1  0.7400000000E+00         1    1         1    157334  0.8000000000E+00  0.5000000000E+00  0.3334689995E+00  0.1707000000E+03  0.9975000000E+02 -0.6999999997E+01        17
      74       1  0.7400000000E+00         2    2         1    284734  0.8000000000E+00  0.5000003111E+00  0.1011029574E-03  0.1707000000E+03  0.9975000047E+02 -0.9000000095E+01        30
      75       1  0.7500000000E+00         1    1         1    157334  0.8000000000E+00  0.5000000000E+00  0.3334689995E+00  0.1707000000E+03  0.9975000000E+02 -0.6999999997E+01        17
      75       1  0.7500000000E+00         2    2         1    284734  0.8000000000E+00  0.5000003153E+00  0.1010945447E-03  0.1707000000E+03  0.9975000047E+02 -0.9000000096E+01        30
      76       1  0.7600000000E+00         1    1         1    157334  0.8000000000E+00  0.5000000000E+00  0.3334689994E+00  0.1707000000E+03  0.9975000000E+02 -0.6999999997E+01        17
      76       1  0.7600000000E+00         2    2         1    284734  0.8000000000E+00  0.5000003195E+00  0.1010861320E-03  0.1707000000E+03  0.9975000048E+02 -0.9000000097E+01        30
      77       1  0.7700000000E+00         1    1         1    157334  0.8000000000E+00  0.5000000000E+00  0.3334689994E+00  0.1707000000E+03  0.9975000000E+02 -0.6999999997E+01        17
      77       1  0.7700000000E+00         2    2         1    284734  0.8000000000E+00  0.5000003237E+00  0.1010777192E-03  0.1707000000E+03  0.9975000049E+02 -0.9000000098E+01        30
      78       1  0.7800000000E+00         1    1         1    157334  0.8000000000E+00  0.5000000000E+00  0.3334689994E+00  0.1707000000E+03  0.9975000000E+02 -0.6999999997E+01        17
      78       1  0.7800000000E+00         2    2         1    284734  0.8000000000E+00  0.5000003279E+00  0.1010693065E-03  0.1707000000E+03  0.9975000049E+02 -0.9000000100E+01        30