# File generated by Flopy version 3.9.3 on 09/16/2025 at 10:11:38.
BEGIN options
END options

BEGIN griddata
  strt
    CONSTANT       1.00000000
END griddata

