MODPATH_TIMESERIES_FILE         7         2
    2   0.0000000000E+00  0.0000000000E+00  0.0000000000E+00  0.0000000000E+00
END HEADER
       0       1  0.0000000000E+00         1    1         1       714  0.8926115000E+00  0.1919452000E+00  0.6702292000E+00  0.1458724208E+03  0.4401542460E+02 -0.7996277150E+01         4
       0       1  0.0000000000E+00         2    2         1       478  0.7006612000E-01  0.8521950000E+00  0.4679313000E+00  0.1792356943E+03  0.7194804750E+02 -0.7158692074E+01         3
       0       1  0.0000000000E+00         3    3         1      1150  0.5250077000E+00  0.4452250000E-01  0.3496500000E+00  0.1000125809E+03  0.2146748625E+02 -0.1043287911E+02         6
       0       1  0.0000000000E+00         4    4         1       633  0.6911032000E+00  0.7811744000E+00  0.1539329000E+00  0.1332565836E+03  0.9220233120E+02 -0.8538386886E+01         4
       0       1  0.0000000000E+00         5    5         1       592  0.6125219000E-01  0.2738759000E+00  0.3044241000E-01  0.1161431480E+03  0.2875696950E+01 -0.7618054241E+01         3
       0       1  0.0000000000E+00         6    6         1       471  0.4911662000E+00  0.7046751000E+00  0.1171927000E+00  0.1101572451E+03  0.7039908855E+02 -0.7526966668E+01         3
       0       1  0.0000000000E+00         7    7         1      1312  0.4751070000E+00  0.1730480000E+00  0.2621236000E+00  0.1204886235E+03  0.4381700400E+02 -0.1157477893E+02         7
       0       1  0.0000000000E+00         8    8         1      1294  0.1439695000E+00  0.5868983000E+00  0.4312576000E-01  0.1380116797E+03  0.5866243215E+02 -0.1180472608E+02         7
       0       1  0.0000000000E+00         9    9         1      1374  0.6804212000E+00  0.4038694000E+00  0.6658685000E+00  0.1436444226E+03  0.1474062870E+02 -0.1115084786E+02         7
       0       1  0.0000000000E+00        10   10         1       576  0.1685563000E+00  0.9810149000E+00  0.3879173000E-01  0.1592698411E+03  0.2080065645E+02 -0.7609287477E+01         3
       0       1  0.0000000000E+00        11   11         1       817  0.2571429000E+00  0.5000000000E+00  0.7143003000E+00  0.1707000004E+03  0.9975000000E+02 -0.8999999942E+01         5
       1       1  0.1000000000E-01         1    1         1       714  0.8926114851E+00  0.1919452014E+00  0.6702291992E+00  0.1458724206E+03  0.4401542461E+02 -0.7996277150E+01         4
       1       1  0.1000000000E-01         2    2         1       478  0.7006611998E-01  0.8521950000E+00  0.4679313005E+00  0.1792356943E+03  0.7194804750E+02 -0.7158692074E+01         3
       1       1  0.1000000000E-01         3    3         1      1150  0.5250076918E+00  0.4452249810E-01  0.3496499995E+00  0.1000125808E+03  0.2146748623E+02 -0.1043287911E+02         6
       1       1  0.1000000000E-01         4    4         1       633  0.6911031996E+00  0.7811744000E+00  0.1539328946E+00  0.1332565836E+03  0.9220233120E+02 -0.8538386892E+01         4
       1       1  0.1000000000E-01         5    5         1       592  0.6125218956E-01  0.2738758929E+00  0.3044234166E-01  0.1161431480E+03  0.2875696875E+01 -0.7618054313E+01         3
       1       1  0.1000000000E-01         6    6         1       471  0.4911662000E+00  0.7046751000E+00  0.1171926965E+00  0.1101572451E+03  0.7039908855E+02 -0.7526966672E+01         3
       1       1  0.1000000000E-01         7    7         1      1312  0.4751069730E+00  0.1730480000E+00  0.2621236000E+00  0.1204886232E+03  0.4381700400E+02 -0.1157477893E+02         7
       1       1  0.1000000000E-01         8    8         1      1294  0.1439695000E+00  0.5868983000E+00  0.4312576000E-01  0.1380116797E+03  0.5866243215E+02 -0.1180472608E+02         7
       1       1  0.1000000000E-01         9    9         1      1374  0.6804212000E+00  0.4038694000E+00  0.6658685000E+00  0.1436444226E+03  0.1474062870E+02 -0.1115084786E+02         7
       1       1  0.1000000000E-01        10   10         1       576  0.1685562998E+00  0.9810149000E+00  0.3879173073E-01  0.1592698411E+03  0.2080065645E+02 -0.7609287476E+01         3
       1       1  0.1000000000E-01        11   11         1       817  0.2571429000E+00  0.5000000008E+00  0.7143002998E+00  0.1707000004E+03  0.9975000001E+02 -0.8999999942E+01         5
       2       1  0.2000000000E-01         1    1         1       714  0.8926114703E+00  0.1919452028E+00  0.6702291983E+00  0.1458724204E+03  0.4401542463E+02 -0.7996277151E+01         4
       2       1  0.2000000000E-01         2    2         1       478  0.7006611995E-01  0.8521950000E+00  0.4679313009E+00  0.1792356943E+03  0.7194804750E+02 -0.7158692073E+01         3
       2       1  0.2000000000E-01         3    3         1      1150  0.5250076837E+00  0.4452249620E-01  0.3496499989E+00  0.1000125807E+03  0.2146748621E+02 -0.1043287911E+02         6
       2       1  0.2000000000E-01         4    4         1       633  0.6911031992E+00  0.7811744001E+00  0.1539328893E+00  0.1332565836E+03  0.9220233120E+02 -0.8538386897E+01         4
       2       1  0.2000000000E-01         5    5         1       592  0.6125218913E-01  0.2738758858E+00  0.3044227331E-01  0.1161431480E+03  0.2875696800E+01 -0.7618054384E+01         3
       2       1  0.2000000000E-01         6    6         1       471  0.4911662000E+00  0.7046751000E+00  0.1171926930E+00  0.1101572451E+03  0.7039908855E+02 -0.7526966675E+01         3
       2       1  0.2000000000E-01         7    7         1      1312  0.4751069461E+00  0.1730480000E+00  0.2621236000E+00  0.1204886229E+03  0.4381700400E+02 -0.1157477893E+02         7
       2       1  0.2000000000E-01         8    8         1      1294  0.1439695000E+00  0.5868983000E+00  0.4312576000E-01  0.1380116797E+03  0.5866243215E+02 -0.1180472608E+02         7
       2       1  0.2000000000E-01         9    9         1      1374  0.6804212000E+00  0.4038694000E+00  0.6658685000E+00  0.1436444226E+03  0.1474062870E+02 -0.1115084786E+02         7
       2       1  0.2000000000E-01        10   10         1       576  0.1685562996E+00  0.9810149000E+00  0.3879173146E-01  0.1592698411E+03  0.2080065645E+02 -0.7609287476E+01         3
       2       1  0.2000000000E-01        11   11         1       817  0.2571428999E+00  0.5000000016E+00  0.7143002996E+00  0.1707000004E+03  0.9975000002E+02 -0.8999999943E+01         5
       3       1  0.3000000000E-01         1    1         1       714  0.8926114554E+00  0.1919452041E+00  0.6702291975E+00  0.1458724203E+03  0.4401542464E+02 -0.7996277152E+01         4
       3       1  0.3000000000E-01         2    2         1       478  0.7006611993E-01  0.8521950000E+00  0.4679313014E+00  0.1792356943E+03  0.7194804750E+02 -0.7158692073E+01         3
       3       1  0.3000000000E-01         3    3         1      1150  0.5250076755E+00  0.4452249430E-01  0.3496499984E+00  0.1000125806E+03  0.2146748619E+02 -0.1043287912E+02         6
       3       1  0.3000000000E-01         4    4         1       633  0.6911031987E+00  0.7811744001E+00  0.1539328839E+00  0.1332565836E+03  0.9220233120E+02 -0.8538386903E+01         4
       3       1  0.3000000000E-01         5    5         1       592  0.6125218869E-01  0.2738758786E+00  0.3044220497E-01  0.1161431480E+03  0.2875696726E+01 -0.7618054456E+01         3
       3       1  0.3000000000E-01         6    6         1       471  0.4911661999E+00  0.7046751000E+00  0.1171926896E+00  0.1101572451E+03  0.7039908855E+02 -0.7526966679E+01         3
       3       1  0.3000000000E-01         7    7         1      1312  0.4751069191E+00  0.1730480000E+00  0.2621236000E+00  0.1204886227E+03  0.4381700400E+02 -0.1157477893E+02         7
       3       1  0.3000000000E-01         8    8         1      1294  0.1439695000E+00  0.5868983000E+00  0.4312576000E-01  0.1380116797E+03  0.5866243215E+02 -0.1180472608E+02         7
       3       1  0.3000000000E-01         9    9         1      1374  0.6804212000E+00  0.4038694000E+00  0.6658685000E+00  0.1436444226E+03  0.1474062870E+02 -0.1115084786E+02         7
       3       1  0.3000000000E-01        10   10         1       576  0.1685562994E+00  0.9810149001E+00  0.3879173219E-01  0.1592698411E+03  0.2080065645E+02 -0.7609287475E+01         3
       3       1  0.3000000000E-01        11   11         1       817  0.2571428999E+00  0.5000000024E+00  0.7143002994E+00  0.1707000004E+03  0.9975000003E+02 -0.8999999943E+01         5
       4       1  0.4000000000E-01         1    1         1       714  0.8926114405E+00  0.1919452055E+00  0.6702291966E+00  0.1458724201E+03  0.4401542466E+02 -0.7996277153E+01         4
       4       1  0.4000000000E-01         2    2         1       478  0.7006611991E-01  0.8521950000E+00  0.4679313018E+00  0.1792356943E+03  0.7194804750E+02 -0.7158692072E+01         3
       4       1  0.4000000000E-01         3    3         1      1150  0.5250076673E+00  0.4452249240E-01  0.3496499978E+00  0.1000125805E+03  0.2146748617E+02 -0.1043287912E+02         6
       4       1  0.4000000000E-01         4    4         1       633  0.6911031983E+00  0.7811744002E+00  0.1539328786E+00  0.1332565836E+03  0.9220233120E+02 -0.8538386909E+01         4
       4       1  0.4000000000E-01         5    5         1       592  0.6125218825E-01  0.2738758715E+00  0.3044213663E-01  0.1161431480E+03  0.2875696651E+01 -0.7618054528E+01         3
       4       1  0.4000000000E-01         6    6         1       471  0.4911661999E+00  0.7046751001E+00  0.1171926861E+00  0.1101572451E+03  0.7039908855E+02 -0.7526966683E+01         3
       4       1  0.4000000000E-01         7    7         1      1312  0.4751068921E+00  0.1730480000E+00  0.2621236000E+00  0.1204886224E+03  0.4381700400E+02 -0.1157477893E+02         7
       4       1  0.4000000000E-01         8    8         1      1294  0.1439695000E+00  0.5868983000E+00  0.4312576000E-01  0.1380116797E+03  0.5866243215E+02 -0.1180472608E+02         7
       4       1  0.4000000000E-01         9    9         1      1374  0.6804212000E+00  0.4038694000E+00  0.6658685000E+00  0.1436444226E+03  0.1474062870E+02 -0.1115084786E+02         7
       4       1  0.4000000000E-01        10   10         1       576  0.1685562992E+00  0.9810149001E+00  0.3879173292E-01  0.1592698411E+03  0.2080065645E+02 -0.7609287474E+01         3
       4       1  0.4000000000E-01        11   11         1       817  0.2571428999E+00  0.5000000032E+00  0.7143002993E+00  0.1707000004E+03  0.9975000003E+02 -0.8999999943E+01         5
       5       1  0.5000000000E-01         1    1         1       714  0.8926114257E+00  0.1919452069E+00  0.6702291958E+00  0.1458724200E+03  0.4401542467E+02 -0.7996277154E+01         4
       5       1  0.5000000000E-01         2    2         1       478  0.7006611989E-01  0.8521950000E+00  0.4679313023E+00  0.1792356943E+03  0.7194804750E+02 -0.7158692072E+01         3
       5       1  0.5000000000E-01         3    3         1      1150  0.5250076591E+00  0.4452249050E-01  0.3496499973E+00  0.1000125804E+03  0.2146748615E+02 -0.1043287912E+02         6
       5       1  0.5000000000E-01         4    4         1       633  0.6911031979E+00  0.7811744002E+00  0.1539328732E+00  0.1332565836E+03  0.9220233120E+02 -0.8538386914E+01         4
       5       1  0.5000000000E-01         5    5         1       592  0.6125218781E-01  0.2738758644E+00  0.3044206829E-01  0.1161431480E+03  0.2875696576E+01 -0.7618054600E+01         3
       5       1  0.5000000000E-01         6    6         1       471  0.4911661999E+00  0.7046751001E+00  0.1171926826E+00  0.1101572451E+03  0.7039908855E+02 -0.7526966686E+01         3
       5       1  0.5000000000E-01         7    7         1      1312  0.4751068652E+00  0.1730480000E+00  0.2621236000E+00  0.1204886221E+03  0.4381700400E+02 -0.1157477893E+02         7
       5       1  0.5000000000E-01         8    8         1      1294  0.1439695000E+00  0.5868983000E+00  0.4312576000E-01  0.1380116797E+03  0.5866243215E+02 -0.1180472608E+02         7
       5       1  0.5000000000E-01         9    9         1      1374  0.6804212000E+00  0.4038694000E+00  0.6658685000E+00  0.1436444226E+03  0.1474062870E+02 -0.1115084786E+02         7
       5       1  0.5000000000E-01        10   10         1       576  0.1685562989E+00  0.9810149001E+00  0.3879173365E-01  0.1592698411E+03  0.2080065645E+02 -0.7609287473E+01         3
       5       1  0.5000000000E-01        11   11         1       817  0.2571428999E+00  0.5000000040E+00  0.7143002991E+00  0.1707000004E+03  0.9975000004E+02 -0.8999999943E+01         5
       6       1  0.6000000000E-01         1    1         1       714  0.8926114108E+00  0.1919452083E+00  0.6702291949E+00  0.1458724198E+03  0.4401542469E+02 -0.7996277155E+01         4
       6       1  0.6000000000E-01         2    2         1       478  0.7006611986E-01  0.8521950000E+00  0.4679313028E+00  0.1792356943E+03  0.7194804750E+02 -0.7158692071E+01         3
       6       1  0.6000000000E-01         3    3         1      1150  0.5250076510E+00  0.4452248860E-01  0.3496499967E+00  0.1000125803E+03  0.2146748613E+02 -0.1043287912E+02         6
       6       1  0.6000000000E-01         4    4         1       633  0.6911031975E+00  0.7811744003E+00  0.1539328678E+00  0.1332565836E+03  0.9220233120E+02 -0.8538386920E+01         4
       6       1  0.6000000000E-01         5    5         1       592  0.6125218738E-01  0.2738758573E+00  0.3044199994E-01  0.1161431480E+03  0.2875696501E+01 -0.7618054671E+01         3
       6       1  0.6000000000E-01         6    6         1       471  0.4911661999E+00  0.7046751001E+00  0.1171926791E+00  0.1101572451E+03  0.7039908855E+02 -0.7526966690E+01         3
       6       1  0.6000000000E-01         7    7         1      1312  0.4751068382E+00  0.1730480000E+00  0.2621236000E+00  0.1204886218E+03  0.4381700400E+02 -0.1157477893E+02         7
       6       1  0.6000000000E-01         8    8         1      1294  0.1439695000E+00  0.5868983000E+00  0.4312576000E-01  0.1380116797E+03  0.5866243215E+02 -0.1180472608E+02         7
       6       1  0.6000000000E-01         9    9         1      1374  0.6804212000E+00  0.4038694000E+00  0.6658685000E+00  0.1436444226E+03  0.1474062870E+02 -0.1115084786E+02         7
       6       1  0.6000000000E-01        10   10         1       576  0.1685562987E+00  0.9810149001E+00  0.3879173438E-01  0.1592698411E+03  0.2080065645E+02 -0.7609287472E+01         3
       6       1  0.6000000000E-01        11   11         1       817  0.2571428998E+00  0.5000000048E+00  0.7143002989E+00  0.1707000004E+03  0.9975000005E+02 -0.8999999943E+01         5
       7       1  0.7000000000E-01         1    1         1       714  0.8926113959E+00  0.1919452096E+00  0.6702291941E+00  0.1458724197E+03  0.4401542470E+02 -0.7996277156E+01         4
       7       1  0.7000000000E-01         2    2         1       478  0.7006611984E-01  0.8521950000E+00  0.4679313032E+00  0.1792356943E+03  0.7194804750E+02 -0.7158692071E+01         3
       7       1  0.7000000000E-01         3    3         1      1150  0.5250076428E+00  0.4452248671E-01  0.3496499962E+00  0.1000125802E+03  0.2146748611E+02 -0.1043287912E+02         6
       7       1  0.7000000000E-01         4    4         1       633  0.6911031971E+00  0.7811744003E+00  0.1539328625E+00  0.1332565836E+03  0.9220233120E+02 -0.8538386925E+01         4
       7       1  0.7000000000E-01         5    5         1       592  0.6125218694E-01  0.2738758501E+00  0.3044193160E-01  0.1161431480E+03  0.2875696426E+01 -0.7618054743E+01         3
       7       1  0.7000000000E-01         6    6         1       471  0.4911661999E+00  0.7046751001E+00  0.1171926757E+00  0.1101572451E+03  0.7039908855E+02 -0.7526966693E+01         3
       7       1  0.7000000000E-01         7    7         1      1312  0.4751068112E+00  0.1730480000E+00  0.2621236000E+00  0.1204886215E+03  0.4381700400E+02 -0.1157477893E+02         7
       7       1  0.7000000000E-01         8    8         1      1294  0.1439695000E+00  0.5868983000E+00  0.4312576000E-01  0.1380116797E+03  0.5866243215E+02 -0.1180472608E+02         7
       7       1  0.7000000000E-01         9    9         1      1374  0.6804212000E+00  0.4038694000E+00  0.6658685000E+00  0.1436444226E+03  0.1474062870E+02 -0.1115084786E+02         7
       7       1  0.7000000000E-01        10   10         1       576  0.1685562985E+00  0.9810149002E+00  0.3879173511E-01  0.1592698411E+03  0.2080065645E+02 -0.7609287472E+01         3
       7       1  0.7000000000E-01        11   11         1       817  0.2571428998E+00  0.5000000056E+00  0.7143002987E+00  0.1707000004E+03  0.9975000006E+02 -0.8999999944E+01         5
       8       1  0.8000000000E-01         1    1         1       714  0.8926113811E+00  0.1919452110E+00  0.6702291932E+00  0.1458724195E+03  0.4401542472E+02 -0.7996277157E+01         4
       8       1  0.8000000000E-01         2    2         1       478  0.7006611982E-01  0.8521950000E+00  0.4679313037E+00  0.1792356943E+03  0.7194804750E+02 -0.7158692070E+01         3
       8       1  0.8000000000E-01         3    3         1      1150  0.5250076346E+00  0.4452248481E-01  0.3496499957E+00  0.1000125802E+03  0.2146748609E+02 -0.1043287912E+02         6
       8       1  0.8000000000E-01         4    4         1       633  0.6911031967E+00  0.7811744004E+00  0.1539328571E+00  0.1332565836E+03  0.9220233120E+02 -0.8538386931E+01         4
       8       1  0.8000000000E-01         5    5         1       592  0.6125218650E-01  0.2738758430E+00  0.3044186326E-01  0.1161431480E+03  0.2875696352E+01 -0.7618054815E+01         3
       8       1  0.8000000000E-01         6    6         1       471  0.4911661998E+00  0.7046751001E+00  0.1171926722E+00  0.1101572451E+03  0.7039908855E+02 -0.7526966697E+01         3
       8       1  0.8000000000E-01         7    7         1      1312  0.4751067843E+00  0.1730480000E+00  0.2621236000E+00  0.1204886212E+03  0.4381700400E+02 -0.1157477893E+02         7
       8       1  0.8000000000E-01         8    8         1      1294  0.1439695000E+00  0.5868983000E+00  0.4312576000E-01  0.1380116797E+03  0.5866243215E+02 -0.1180472608E+02         7
       8       1  0.8000000000E-01         9    9         1      1374  0.6804212000E+00  0.4038694000E+00  0.6658685000E+00  0.1436444226E+03  0.1474062870E+02 -0.1115084786E+02         7
       8       1  0.8000000000E-01        10   10         1       576  0.1685562983E+00  0.9810149002E+00  0.3879173584E-01  0.1592698411E+03  0.2080065645E+02 -0.7609287471E+01         3
       8       1  0.8000000000E-01        11   11         1       817  0.2571428998E+00  0.5000000064E+00  0.7143002985E+00  0.1707000004E+03  0.9975000007E+02 -0.8999999944E+01         5
       9       1  0.9000000000E-01         1    1         1       714  0.8926113662E+00  0.1919452124E+00  0.6702291924E+00  0.1458724193E+03  0.4401542473E+02 -0.7996277158E+01         4
       9       1  0.9000000000E-01         2    2         1       478  0.7006611980E-01  0.8521950000E+00  0.4679313042E+00  0.1792356943E+03  0.7194804750E+02 -0.7158692070E+01         3
       9       1  0.9000000000E-01         3    3         1      1150  0.5250076264E+00  0.4452248291E-01  0.3496499951E+00  0.1000125801E+03  0.2146748607E+02 -0.1043287912E+02         6
       9       1  0.9000000000E-01         4    4         1       633  0.6911031962E+00  0.7811744004E+00  0.1539328518E+00  0.1332565836E+03  0.9220233120E+02 -0.8538386937E+01         4
       9       1  0.9000000000E-01         5    5         1       592  0.6125218607E-01  0.2738758359E+00  0.3044179492E-01  0.1161431480E+03  0.2875696277E+01 -0.7618054887E+01         3
       9       1  0.9000000000E-01         6    6         1       471  0.4911661998E+00  0.7046751001E+00  0.1171926687E+00  0.1101572451E+03  0.7039908855E+02 -0.7526966701E+01         3
       9       1  0.9000000000E-01         7    7         1      1312  0.4751067573E+00  0.1730480000E+00  0.2621236000E+00  0.1204886210E+03  0.4381700400E+02 -0.1157477893E+02         7
       9       1  0.9000000000E-01         8    8         1      1294  0.1439695000E+00  0.5868983000E+00  0.4312576000E-01  0.1380116797E+03  0.5866243215E+02 -0.1180472608E+02         7
       9       1  0.9000000000E-01         9    9         1      1374  0.6804212000E+00  0.4038694000E+00  0.6658685000E+00  0.1436444226E+03  0.1474062870E+02 -0.1115084786E+02         7
       9       1  0.9000000000E-01        10   10         1       576  0.1685562981E+00  0.9810149002E+00  0.3879173657E-01  0.1592698411E+03  0.2080065645E+02 -0.7609287470E+01         3
       9       1  0.9000000000E-01        11   11         1       817  0.2571428998E+00  0.5000000072E+00  0.7143002983E+00  0.1707000004E+03  0.9975000008E+02 -0.8999999944E+01         5
      10       1  0.1000000000E+00         1    1         1       714  0.8926113513E+00  0.1919452138E+00  0.6702291915E+00  0.1458724192E+03  0.4401542474E+02 -0.7996277158E+01         4
      10       1  0.1000000000E+00         2    2         1       478  0.7006611977E-01  0.8521950000E+00  0.4679313046E+00  0.1792356943E+03  0.7194804750E+02 -0.7158692070E+01         3
      10       1  0.1000000000E+00         3    3         1      1150  0.5250076183E+00  0.4452248101E-01  0.3496499946E+00  0.1000125800E+03  0.2146748605E+02 -0.1043287912E+02         6
      10       1  0.1000000000E+00         4    4         1       633  0.6911031958E+00  0.7811744005E+00  0.1539328464E+00  0.1332565836E+03  0.9220233120E+02 -0.8538386942E+01         4
      10       1  0.1000000000E+00         5    5         1       592  0.6125218563E-01  0.2738758288E+00  0.3044172657E-01  0.1161431479E+03  0.2875696202E+01 -0.7618054958E+01         3
      10       1  0.1000000000E+00         6    6         1       471  0.4911661998E+00  0.7046751001E+00  0.1171926652E+00  0.1101572451E+03  0.7039908855E+02 -0.7526966704E+01         3
      10       1  0.1000000000E+00         7    7         1      1312  0.4751067303E+00  0.1730480000E+00  0.2621236000E+00  0.1204886207E+03  0.4381700400E+02 -0.1157477893E+02         7
      10       1  0.1000000000E+00         8    8         1      1294  0.1439695000E+00  0.5868983000E+00  0.4312576000E-01  0.1380116797E+03  0.5866243215E+02 -0.1180472608E+02         7
      10       1  0.1000000000E+00         9    9         1      1374  0.6804212000E+00  0.4038694000E+00  0.6658685000E+00  0.1436444226E+03  0.1474062870E+02 -0.1115084786E+02         7
      10       1  0.1000000000E+00        10   10         1       576  0.1685562979E+00  0.9810149002E+00  0.3879173730E-01  0.1592698411E+03  0.2080065645E+02 -0.7609287469E+01         3
      10       1  0.1000000000E+00        11   11         1       817  0.2571428997E+00  0.5000000080E+00  0.7143002981E+00  0.1707000004E+03  0.9975000008E+02 -0.8999999944E+01         5
      11       1  0.1100000000E+00         1    1         1       714  0.8926113365E+00  0.1919452152E+00  0.6702291907E+00  0.1458724190E+03  0.4401542476E+02 -0.7996277159E+01         4
      11       1  0.1100000000E+00         2    2         1       478  0.7006611975E-01  0.8521949999E+00  0.4679313051E+00  0.1792356943E+03  0.7194804750E+02 -0.7158692069E+01         3
      11       1  0.1100000000E+00         3    3         1      1150  0.5250076101E+00  0.4452247911E-01  0.3496499940E+00  0.1000125799E+03  0.2146748603E+02 -0.1043287912E+02         6
      11       1  0.1100000000E+00         4    4         1       633  0.6911031954E+00  0.7811744005E+00  0.1539328411E+00  0.1332565836E+03  0.9220233121E+02 -0.8538386948E+01         4
      11       1  0.1100000000E+00         5    5         1       592  0.6125218519E-01  0.2738758216E+00  0.3044165823E-01  0.1161431479E+03  0.2875696127E+01 -0.7618055030E+01         3
      11       1  0.1100000000E+00         6    6         1       471  0.4911661998E+00  0.7046751001E+00  0.1171926618E+00  0.1101572451E+03  0.7039908855E+02 -0.7526966708E+01         3
      11       1  0.1100000000E+00         7    7         1      1312  0.4751067034E+00  0.1730480000E+00  0.2621236000E+00  0.1204886204E+03  0.4381700400E+02 -0.1157477893E+02         7
      11       1  0.1100000000E+00         8    8         1      1294  0.1439695000E+00  0.5868983000E+00  0.4312576000E-01  0.1380116797E+03  0.5866243215E+02 -0.1180472608E+02         7
      11       1  0.1100000000E+00         9    9         1      1374  0.6804212000E+00  0.4038694000E+00  0.6658685000E+00  0.1436444226E+03  0.1474062870E+02 -0.1115084786E+02         7
      11       1  0.1100000000E+00        10   10         1       576  0.1685562977E+00  0.9810149002E+00  0.3879173803E-01  0.1592698411E+03  0.2080065645E+02 -0.7609287469E+01         3
      11       1  0.1100000000E+00        11   11         1       817  0.2571428997E+00  0.5000000088E+00  0.7143002980E+00  0.1707000004E+03  0.9975000009E+02 -0.8999999944E+01         5
      12       1  0.1200000000E+00         1    1         1       714  0.8926113216E+00  0.1919452165E+00  0.6702291898E+00  0.1458724189E+03  0.4401542477E+02 -0.7996277160E+01         4
      12       1  0.1200000000E+00         2    2         1       478  0.7006611973E-01  0.8521949999E+00  0.4679313055E+00  0.1792356943E+03  0.7194804750E+02 -0.7158692069E+01         3
      12       1  0.1200000000E+00         3    3         1      1150  0.5250076019E+00  0.4452247721E-01  0.3496499935E+00  0.1000125798E+03  0.2146748601E+02 -0.1043287912E+02         6
      12       1  0.1200000000E+00         4    4         1       633  0.6911031950E+00  0.7811744005E+00  0.1539328357E+00  0.1332565835E+03  0.9220233121E+02 -0.8538386954E+01         4
      12       1  0.1200000000E+00         5    5         1       592  0.6125218476E-01  0.2738758145E+00  0.3044158989E-01  0.1161431479E+03  0.2875696052E+01 -0.7618055102E+01         3
      12       1  0.1200000000E+00         6    6         1       471  0.4911661998E+00  0.7046751002E+00  0.1171926583E+00  0.1101572451E+03  0.7039908855E+02 -0.7526966712E+01         3
      12       1  0.1200000000E+00         7    7         1      1312  0.4751066764E+00  0.1730480000E+00  0.2621236000E+00  0.1204886201E+03  0.4381700400E+02 -0.1157477893E+02         7
      12       1  0.1200000000E+00         8    8         1      1294  0.1439695000E+00  0.5868983000E+00  0.4312576000E-01  0.1380116797E+03  0.5866243215E+02 -0.1180472608E+02         7
      12       1  0.1200000000E+00         9    9         1      1374  0.6804212000E+00  0.4038694000E+00  0.6658685000E+00  0.1436444226E+03  0.1474062870E+02 -0.1115084786E+02         7
      12       1  0.1200000000E+00        10   10         1       576  0.1685562975E+00  0.9810149003E+00  0.3879173876E-01  0.1592698411E+03  0.2080065645E+02 -0.7609287468E+01         3
      12       1  0.1200000000E+00        11   11         1       817  0.2571428997E+00  0.5000000096E+00  0.7143002978E+00  0.1707000004E+03  0.9975000010E+02 -0.8999999945E+01         5
      13       1  0.1300000000E+00         1    1         1       714  0.8926113067E+00  0.1919452179E+00  0.6702291890E+00  0.1458724187E+03  0.4401542479E+02 -0.7996277161E+01         4
      13       1  0.1300000000E+00         2    2         1       478  0.7006611971E-01  0.8521949999E+00  0.4679313060E+00  0.1792356943E+03  0.7194804750E+02 -0.7158692068E+01         3
      13       1  0.1300000000E+00         3    3         1      1150  0.5250075937E+00  0.4452247531E-01  0.3496499930E+00  0.1000125797E+03  0.2146748599E+02 -0.1043287912E+02         6
      13       1  0.1300000000E+00         4    4         1       633  0.6911031946E+00  0.7811744006E+00  0.1539328303E+00  0.1332565835E+03  0.9220233121E+02 -0.8538386959E+01         4
      13       1  0.1300000000E+00         5    5         1       592  0.6125218432E-01  0.2738758074E+00  0.3044152154E-01  0.1161431479E+03  0.2875695978E+01 -0.7618055174E+01         3
      13       1  0.1300000000E+00         6    6         1       471  0.4911661998E+00  0.7046751002E+00  0.1171926548E+00  0.1101572451E+03  0.7039908855E+02 -0.7526966715E+01         3
      13       1  0.1300000000E+00         7    7         1      1312  0.4751066494E+00  0.1730480000E+00  0.2621236000E+00  0.1204886198E+03  0.4381700400E+02 -0.1157477893E+02         7
      13       1  0.1300000000E+00         8    8         1      1294  0.1439695000E+00  0.5868983000E+00  0.4312576000E-01  0.1380116797E+03  0.5866243215E+02 -0.1180472608E+02         7
      13       1  0.1300000000E+00         9    9         1      1374  0.6804212000E+00  0.4038694000E+00  0.6658685000E+00  0.1436444226E+03  0.1474062870E+02 -0.1115084786E+02         7
      13       1  0.1300000000E+00        10   10         1       576  0.1685562972E+00  0.9810149003E+00  0.3879173949E-01  0.1592698411E+03  0.2080065645E+02 -0.7609287467E+01         3
      13       1  0.1300000000E+00        11   11         1       817  0.2571428997E+00  0.5000000104E+00  0.7143002976E+00  0.1707000004E+03  0.9975000011E+02 -0.8999999945E+01         5
      14       1  0.1400000000E+00         1    1         1       714  0.8926112919E+00  0.1919452193E+00  0.6702291882E+00  0.1458724186E+03  0.4401542480E+02 -0.7996277162E+01         4
      14       1  0.1400000000E+00         2    2         1       478  0.7006611968E-01  0.8521949999E+00  0.4679313065E+00  0.1792356943E+03  0.7194804750E+02 -0.7158692068E+01         3
      14       1  0.1400000000E+00         3    3         1      1150  0.5250075856E+00  0.4452247341E-01  0.3496499924E+00  0.1000125796E+03  0.2146748597E+02 -0.1043287912E+02         6
      14       1  0.1400000000E+00         4    4         1       633  0.6911031942E+00  0.7811744006E+00  0.1539328250E+00  0.1332565835E+03  0.9220233121E+02 -0.8538386965E+01         4