# File generated by Flopy version 3.9.3 on 10/06/2025 at 13:43:16.
BEGIN options
  SAVE_FLOWS
  SAVE_SPECIFIC_DISCHARGE
  SAVE_SATURATION
END options

BEGIN griddata
  icelltype
    CONSTANT  0
  k  LAYERED
    INTERNAL  FACTOR  1.0
      9.65459839E-04  9.65459839E-04  9.65459839E-04  9.65459839E-04  9.65459839E-04  9.65459839E-04  9.65459839E-04  9.65459839E-04  9.65459839E-04  9.65459839E-04  9.65459839E-04  9.65459839E-04  9.65459839E-04  9.65459839E-04  9.65459839E-04  9.65459839E-04  9.65459839E-04  9.65459839E-04  9.65459839E-04  9.65459839E-04
      9.65459839E-04  9.65459839E-04  9.65459839E-04  9.65459839E-04  9.65459839E-04  9.65459839E-04  9.65459839E-04  9.65459839E-04  9.65459839E-04  9.65459839E-04  9.65459839E-04  9.65459839E-04  9.65459839E-04  9.65459839E-04  9.65459839E-04  9.65459839E-04  9.65459839E-04  9.65459839E-04  9.65459839E-04  9.65459839E-04
      9.65459839E-04  9.65459839E-04  9.65459839E-04  9.65459839E-04  9.65459839E-04  9.65459839E-04  9.65459839E-04  9.65459839E-04  9.65459839E-04  9.65459839E-04  9.65459839E-04  9.65459839E-04  9.65459839E-04  9.65459839E-04  9.65459839E-04  9.65459839E-04  9.65459839E-04  9.65459839E-04  9.65459839E-04  9.65459839E-04
      9.65459839E-04  9.65459839E-04  9.65459839E-04  9.65459839E-04  9.65459839E-04  9.65459839E-04  9.65459839E-04  9.65459839E-04  9.65459839E-04  9.65459839E-04  9.65459839E-04  9.65459839E-04  9.65459839E-04  9.65459839E-04  9.65459839E-04  9.65459839E-04  9.65459839E-04  9.65459839E-04  9.65459839E-04  9.65459839E-04
      9.65459839E-04  9.65459839E-04  9.65459839E-04  9.65459839E-04  9.65459839E-04  9.65459839E-04  9.65459839E-04  9.65459839E-04  9.65459839E-04  9.65459839E-04  9.65459839E-04  9.65459839E-04  9.65459839E-04  9.65459839E-04  9.65459839E-04  9.65459839E-04  9.65459839E-04  9.65459839E-04  9.65459839E-04  9.65459839E-04
      9.65459839E-04  9.65459839E-04  9.65459839E-04  9.65459839E-04  9.65459839E-04  9.65459839E-04  9.65459839E-04  9.65459839E-04  9.65459839E-04  9.65459839E-04  9.65459839E-04  9.65459839E-04  9.65459839E-04  9.65459839E-04  9.65459839E-04  9.65459839E-04  9.65459839E-04  9.65459839E-04  9.65459839E-04  9.65459839E-04
      9.65459839E-04  9.65459839E-04  9.65459839E-04  9.65459839E-04  9.65459839E-04  9.65459839E-04  9.65459839E-04  9.65459839E-04  9.65459839E-04  9.65459839E-04  9.65459839E-04  9.65459839E-04  9.65459839E-04  9.65459839E-04  9.65459839E-04  9.65459839E-04  9.65459839E-04  9.65459839E-04  9.65459839E-04  9.65459839E-04
      9.65459839E-04  9.65459839E-04  9.65459839E-04  9.65459839E-04  9.65459839E-04  9.65459839E-04  9.65459839E-04  9.65459839E-04  9.65459839E-04  9.65459839E-04  9.65459839E-04  9.65459839E-04  9.65459839E-04  9.65459839E-04  9.65459839E-04  9.65459839E-04  9.65459839E-04  9.65459839E-04  9.65459839E-04  9.65459839E-04
      9.65459839E-04  9.65459839E-04  9.65459839E-04  9.65459839E-04  9.65459839E-04  9.65459839E-04  9.65459839E-04  9.65459839E-04  9.65459839E-04  9.65459839E-04  9.65459839E-04  9.65459839E-04  9.65459839E-04  9.65459839E-04  9.65459839E-04  9.65459839E-04  9.65459839E-04  9.65459839E-04  9.65459839E-04  9.65459839E-04
      9.65459839E-04  9.65459839E-04  9.65459839E-04  9.65459839E-04  9.65459839E-04  9.65459839E-04  9.65459839E-04  9.65459839E-04  9.65459839E-04  9.65459839E-04  9.65459839E-04  9.65459839E-04  9.65459839E-04  9.65459839E-04  9.65459839E-04  9.65459839E-04  9.65459839E-04  9.65459839E-04  9.65459839E-04  9.65459839E-04
    INTERNAL  FACTOR  1.0
      1.13183274E-05  3.32823111E-09  1.28142565E-08  5.33707814E-06  7.22479394E-05  6.17222914E-05  8.12449746E-06  1.13281875E-05  1.87211362E-04  3.74517319E-04  1.64161215E-04  4.61022500E-05  9.82205186E-05  1.21704610E-04  5.55619148E-05  1.79523521E-05  1.51658160E-05  7.84185861E-08  9.07138535E-08  6.76103910E-07
      1.31575181E-04  6.00550589E-05  1.59937183E-05  3.42883396E-05  3.02670498E-05  3.49601386E-06  2.08874220E-07  1.42876620E-07  4.59314182E-05  1.30093694E-04  7.73883072E-05  2.52277969E-05  2.53847328E-05  2.41707982E-05  3.20257135E-05  5.17169671E-06  2.82108625E-05  1.78751135E-05  9.36819075E-05  3.33699260E-05
      4.36422971E-05  3.13319098E-05  5.63328806E-06  1.16592488E-05  2.98508814E-05  8.89112027E-07  1.15762581E-07  5.00187605E-08  6.74350637E-08  4.28613082E-05  5.97257276E-05  3.89636862E-05  3.26630393E-05  4.90374016E-05  3.26577288E-05  1.14661083E-05  4.99145885E-08  8.59351368E-06  1.52705318E-04  6.57597409E-05
      1.00298463E-05  1.98669525E-05  6.39525690E-06  3.61191930E-06  4.07916959E-05  1.28033301E-06  1.60066897E-06  9.64468717E-06  2.69850306E-05  1.20676861E-04  9.16652353E-05  1.86708811E-05  7.15559187E-06  3.77914725E-05  8.17957350E-05  9.50889738E-05  1.16054660E-05  2.08745656E-05  1.25836594E-04  1.20760671E-05
      5.46975612E-05  4.49591177E-05  1.93988344E-05  3.77368853E-05  1.97984794E-04  3.48236131E-05  1.24797116E-05  3.34747100E-05  3.13418730E-05  7.76549084E-05  1.03091434E-04  8.08505734E-06  1.66503880E-05  4.51426095E-05  1.56004109E-04  8.78366440E-05  1.27465066E-05  2.29949642E-05  1.77063317E-07  1.30735402E-08
      1.07938034E-05  3.99637880E-05  2.65727116E-05  2.31939688E-04  4.91761048E-04  5.73472492E-05  2.41125430E-05  2.98960485E-05  2.60005047E-05  2.53586177E-05  5.13033614E-05  7.18261199E-05  7.53129518E-05  6.26057226E-05  9.14000974E-05  5.47236814E-05  1.86738938E-05  1.92576669E-05  2.45477220E-05  4.71152971E-05
      3.93419071E-08  1.47034687E-06  8.04227352E-06  1.63217151E-04  7.05833513E-04  2.26918714E-04  2.70669444E-05  9.19605104E-06  1.74726028E-06  1.45873100E-07  8.29400924E-06  1.20006517E-04  8.17668385E-05  1.98484854E-05  8.26106868E-06  4.06552279E-05  9.33493205E-05  9.09457079E-05  5.36911989E-05  1.16396071E-04
      1.33901895E-05  6.50339818E-06  3.27869789E-07  4.84645224E-06  3.19287944E-04       0.00108111  1.10372694E-04  9.89630680E-06  1.19651982E-05  1.11827259E-05  1.53692272E-04  4.10503155E-04  1.40072593E-04  1.38729864E-05  1.42665751E-05  7.31355964E-05  5.62371481E-05  6.01693478E-05  2.58719754E-05  3.40154548E-05
      7.23595729E-05  2.81352740E-05  2.07709192E-05  1.67942427E-05  1.25846675E-04  8.43254838E-04  6.47011620E-05  4.18116751E-05  1.11393184E-04  2.83496797E-05  1.14742195E-04  4.32076734E-04  6.17215628E-04  4.41798883E-05  9.13755735E-05  6.14117999E-04  1.95066683E-04  4.81861345E-05  1.82562435E-05  2.57064882E-05
      8.10862527E-05  2.80531663E-05  5.75988333E-05  2.96017775E-05  1.28435925E-05  1.12424792E-04  7.25418275E-05  6.97517989E-05  5.51758062E-05  1.07359627E-05  1.19020118E-05  2.66583438E-04  2.34178350E-04  2.00530702E-05  1.68425049E-05  2.60117483E-04  9.63572571E-05  2.69266427E-05  3.40429730E-05  2.83480304E-05
    INTERNAL  FACTOR  1.0
      7.37930218E-10  1.26715544E-09  4.48093029E-08  2.82884925E-08  1.73718130E-07  1.14306365E-07  8.30474422E-08  5.20173630E-07  1.78119259E-07  2.99965923E-08  4.04353028E-07  1.68335217E-05  8.08453546E-08  1.97019665E-08  2.07636019E-09  6.13074322E-08  1.02899870E-08  1.15778831E-08  1.01844904E-07  3.00866416E-07
      1.26658817E-05  7.81451243E-10  1.05501776E-09  5.75546873E-08  1.99611144E-07  2.22044247E-07  9.51235609E-08  1.22080635E-07  1.02687962E-08  1.57220315E-09  1.09344856E-07  3.28053008E-06  1.70624948E-07  2.42800529E-06  3.01654909E-06  8.89683016E-08  4.56166423E-09  6.14631965E-09  2.30779380E-07  3.80884540E-07
      4.31992694E-06  2.21070873E-08  1.23004450E-08  2.05841780E-07  1.19953441E-07  2.56421393E-07  9.89712206E-08  5.60962121E-08  3.64716672E-09  1.62669791E-08  7.29314288E-09  6.44631330E-09  6.57559337E-07       0.00136619  6.79875277E-07  5.13944790E-08  2.28053650E-08  3.03128266E-08  9.82819948E-08  4.43861888E-06
      2.45217111E-07  7.22946457E-09  5.64090608E-08  1.17652337E-07  7.29737574E-06  2.20465427E-07  4.89760796E-08  8.99997512E-08  1.74317931E-07  1.76680578E-05  1.07766101E-07  5.76349726E-08  1.24915039E-07  5.35814642E-06  6.50281048E-05  1.98728311E-05  1.04132718E-07  4.46539649E-08  1.16782812E-07  9.62103088E-06
      8.55861131E-07  3.64865554E-07  3.77083634E-08  3.97245963E-08  8.96274494E-05  1.92144151E-07  1.84798786E-07  1.30031786E-07  2.57293761E-06  2.15810766E-05  2.76341762E-07  1.17541795E-07  2.30303057E-07  2.34763179E-05  1.14765244E-04  5.31591870E-05  8.96648526E-08  3.40519157E-08  5.14101464E-08  2.02173321E-06
      8.45448170E-08  1.08124780E-07  1.47960583E-07  1.49841084E-07  2.84858952E-04  3.29371981E-06  4.24344842E-08  4.53262409E-08  4.93387996E-08  2.17400814E-08  1.61084760E-07  7.32387132E-08  2.62013239E-07  1.72571331E-05  3.58649448E-05  8.88070159E-06  1.18777619E-07  4.83576853E-08  7.11720830E-08  1.38761027E-07
      2.00251088E-08  1.05077903E-07  1.52359198E-07  1.36419196E-07  2.90244414E-04  1.01771299E-04  4.36266119E-07  3.56226454E-08  2.21900496E-07  1.51106315E-07  1.15952874E-07  1.53180880E-05  1.09711533E-08  4.76137814E-10  1.16308513E-08  7.72630049E-08  7.27911550E-08  1.32413298E-05  3.09033360E-06  2.37855736E-07
      8.34678513E-09  7.52864435E-08  3.40348948E-07  4.13591430E-09  4.83865346E-05  6.16747990E-04  4.34728020E-04       0.00231563  1.86102984E-07  1.00225737E-07  4.25259242E-07  1.80188958E-04  4.64330329E-07  1.24256384E-08  1.12973000E-08  7.01351021E-08  2.03945859E-06  3.95396910E-06  2.29850285E-06  8.12240684E-06
      1.31128729E-05  2.65334567E-07  2.63008489E-06  1.03118813E-08  6.75607223E-06  3.15353791E-04       0.00112030       0.00115198  2.77701331E-05  7.21485742E-08  1.60228877E-07  2.07737365E-04  2.76520147E-04  6.26405423E-07  1.53754563E-07  1.43645529E-04  7.21181830E-06  1.33705764E-07  2.29520246E-07  2.81558191E-06
      1.42225743E-07  1.66415544E-07  8.61654911E-07  7.95384574E-08  1.15294479E-07  2.68503518E-07  8.06746426E-06  1.48364503E-05  1.11255475E-05  2.11503763E-07  1.66860150E-07  6.04946882E-05  1.93648060E-04  5.49270612E-07  3.50277893E-07  1.66597316E-05  8.37729478E-08  3.96657135E-08  8.71693869E-08       0.00597442
    INTERNAL  FACTOR  1.0
      1.55311959E-09  1.70054895E-09  9.12794466E-08  4.75541536E-08       0.00214923       0.00387830       0.00878166       0.00337762  2.84953350E-07  5.78129306E-08  4.49870316E-08  7.73458869E-08  6.28243595E-07  1.81141904E-07  2.22526946E-07  1.01923070E-07  1.92816568E-08  3.24106374E-09  1.19901870E-07  6.59726973E-07
      9.03734659E-09  1.87960520E-08  1.05157656E-09  1.51686338E-08  3.21244261E-07  1.51191703E-04       0.00146186       0.00803774       0.00747538  4.01178639E-09  2.54271611E-08  1.89563721E-08  6.27729779E-07  2.63506101E-06  1.14253038E-05  4.35733022E-07  2.23194471E-08  1.79941916E-06  2.01099325E-07  3.87739663E-07
      4.30125270E-07  1.01802432E-07  7.44797142E-08       0.00236694  3.96740588E-04  2.21037977E-07       0.00117617  7.24586437E-05  1.11427956E-05  1.40789253E-07  4.06026619E-08  1.95908509E-08       0.01525951       0.00446170  6.54897343E-04  1.57514094E-07  2.37340607E-08  7.39230513E-08  5.42083462E-06  4.40240912E-05
      1.24545662E-06  1.79616400E-07  7.01070217E-08       0.00128909  1.15856011E-04       0.00412944  4.49268988E-08  8.71011888E-08  4.57205703E-07  2.67492955E-04  1.02436410E-07  7.95593730E-08  3.37751447E-07       0.00515776  9.64909288E-07  3.70809484E-07  1.87721961E-07  1.54485681E-06  4.29262692E-06  1.58514458E-05
      7.35252922E-04  4.15950705E-07  3.25785306E-06  4.03881739E-08       0.00514536       0.00541167  1.93315722E-07  6.37846082E-07  5.62833984E-04  3.16484164E-05  1.22263681E-07  2.32579661E-07  1.43936681E-07       0.00128822  9.56671488E-06  1.64430860E-07  1.27229477E-07  1.12614444E-06  2.22305397E-06  2.46935417E-06
      2.52002181E-06  6.53216438E-06  1.43690878E-04  1.07607108E-07  9.20890596E-07  3.36781110E-07  4.22576752E-08  4.68787571E-08  4.60265977E-08  1.70460808E-08  1.73902359E-07  2.51731496E-07  2.99121856E-05  7.07437140E-04       0.00206541  1.50145127E-07  7.54624769E-08  1.00666958E-07  8.43786579E-08  1.69235364E-07
      2.75813430E-08  7.20269973E-06  4.76871013E-05  9.93199790E-08  3.14463205E-07       0.00429902       0.01109846       0.00407504  3.67266452E-07  3.48092815E-07       0.00167212  5.32759630E-08  1.60916478E-08  8.37001887E-04       0.00162102       0.01075286  1.08074763E-06  2.48224879E-05  2.79156053E-06  3.39974288E-07
      8.20676223E-09  6.45246870E-08  3.02106047E-07  3.54730455E-04       0.00130316       0.00141827       0.00735446       0.00758725       0.00456523       0.00170648       0.00972810  2.91841468E-06  9.15528629E-07  4.66802321E-08  1.65388514E-08       0.00366266  1.08243341E-06       0.00106112  1.65666845E-07  5.06154250E-06
      9.37449924E-08  7.84924220E-08  1.71290811E-07       0.00133798       0.00426187       0.00249002       0.00400811       0.00515383       0.00441034  9.84975352E-08  5.86708793E-08       0.00108460       0.00241200  3.02917973E-07  1.25711921E-07  2.70121221E-07  7.03031383E-07  1.48917221E-07  2.60651560E-07  5.12410489E-05
      8.21312720E-05  7.59231620E-04       0.00106167       0.00258593       0.01868587       0.00305258       0.00441469  8.72942006E-09  2.50371026E-09  4.36724577E-04  4.10824115E-07       0.00323222  2.88041182E-06  1.74695457E-07  4.00241951E-07  7.96019187E-07  5.26892127E-07  4.12598608E-08  1.14536432E-07       0.00175151
    INTERNAL  FACTOR  1.0
      1.10577545E-06  1.33853611E-06       0.00241142       0.00253524       0.00929873       0.00710350       0.02552344       0.00737132       0.00572057       0.00268271       0.01325484  3.13404004E-04  4.42557674E-06  1.48184934E-06  2.15876969E-06  2.55176301E-06  1.58604921E-07  7.76343485E-08  1.02951541E-07  9.49189379E-06
           0.00463114  5.26441896E-04       0.00497743       0.00778636       0.01727989       0.00428135       0.01138208       0.01246098       0.02420552       0.00454786  5.10370276E-04  8.25302602E-05  3.26040269E-06  1.54727900E-05  2.57168851E-05  8.13596817E-05  9.69577140E-04       0.00147721  1.96488370E-05  9.85098849E-06
           0.00158049       0.00280218       0.00252610       0.00830876       0.00515696       0.00372256       0.00657993       0.00108382       0.00767505       0.00175221  2.73099775E-04  1.35987458E-04  1.07992490E-04  8.96695860E-05  1.17756899E-04  3.86347527E-05  5.74647284E-07       0.00284590       0.00323589       0.00218216
      5.73814913E-04  4.00011207E-07  2.41916258E-07       0.00992831       0.01148632       0.00679798       0.00820028       0.01090385       0.00454008       0.00187779  3.42687976E-04  9.39847340E-05  4.59348697E-04       0.00182414  1.19374829E-04  5.30019758E-06       0.00121532  5.14475113E-04  7.59293252E-04  5.64006104E-04
      6.31400956E-06  1.05779839E-06  2.63949678E-06       0.00341600       0.01755892       0.01461569       0.02872033       0.01615101       0.00472540       0.00134402  2.21959679E-04       0.00147452  7.25138191E-04       0.00332236       0.00365841  7.76428761E-04       0.00266559  6.54243971E-05  1.06662493E-05  5.80657201E-06
           0.00950316       0.00328161       0.00117005       0.00329172       0.00248573       0.00366829       0.00166117  3.40109594E-07  2.61066757E-05  1.40455995E-04  3.32208893E-04       0.00182155       0.00979729       0.00333174       0.00588849       0.00100350  3.61159780E-04  6.93641349E-05  2.78965055E-06  3.51454755E-07
      2.93606092E-04       0.00267214       0.00193504       0.00463941       0.00617141       0.00997713       0.02523249       0.00679552       0.00251282       0.01227952       0.00285540  3.20858686E-05       0.00313902       0.00533528       0.00216256       0.00627721       0.00717573  2.65065925E-05  6.74417174E-05  2.57012138E-06
      7.58544689E-09  7.93030421E-08  4.37114873E-07       0.00239004       0.00289828       0.00363269       0.00922271       0.00575804       0.00390214       0.00665506       0.00846329  8.05495142E-05  5.38887597E-05       0.00244773  4.04422507E-04       0.00398753  1.74073692E-05  4.80040583E-05  1.11965970E-04  1.69012806E-05
      4.09659359E-05  1.56124140E-05  5.58913276E-04       0.01100037       0.01869019       0.00238572       0.00479973       0.00604831       0.00626548  7.58563114E-04  2.07223212E-04       0.00152907       0.00111000  1.35478173E-05  2.22436896E-07  4.16435966E-06  1.33012941E-05  1.23203445E-05  7.28257701E-05  1.22395052E-04
      1.87936244E-04  6.13814973E-04       0.00133860       0.02265679       0.03199738       0.00389723       0.00453853       0.01063240       0.00126238       0.00509415       0.00202471  5.43759875E-04  2.36570040E-06  6.07325920E-07  1.49475821E-06  4.39496582E-06  6.72576897E-07  1.07526267E-06  3.59223718E-05  7.09595164E-05
    INTERNAL  FACTOR  1.0
           0.00307760       0.00181216  1.35601505E-06  2.39493700E-05       0.00109544  2.59591686E-04       0.00522595       0.00736718       0.00635524       0.00841388       0.00998075  3.85297220E-04  1.07599166E-05  8.23881498E-07  9.44133427E-05       0.00169316       0.00502975  2.73094889E-10  6.50642130E-04       0.00207078
           0.02055612       0.00347302       0.00189464       0.00176873       0.00689914       0.00377611       0.00986087       0.00721880       0.03029341       0.00908819       0.00158269  5.17691176E-04  1.02084121E-04  3.81310419E-05  1.59290542E-04  3.40376519E-04       0.00117932  5.90575530E-08  4.62870772E-08  9.20504640E-04
           0.00247491  8.70366999E-07  1.32237171E-06       0.00200014       0.00126132  2.64871484E-04       0.00450060       0.00398817       0.01646430       0.00555830       0.00204766  8.54891358E-05  8.92845272E-05  8.60213090E-05  2.21406078E-04  4.80088732E-04       0.00236263       0.00277509       0.00645524       0.00663093
      8.54445349E-04  8.14791809E-07  2.78170473E-06  7.31961475E-04       0.00505357       0.00219050       0.00265335       0.00516220       0.00463711       0.00607939  6.16124147E-04  1.33161669E-05  2.62960634E-05  1.27992604E-04  2.44744709E-04  2.80524578E-04       0.00168881  8.02088156E-04       0.00112212  1.84981541E-04
      3.08834953E-06  6.56541653E-07  6.85926207E-04       0.00558747       0.01031275       0.00527195  3.89578017E-07       0.00266109  5.54350263E-04  7.53430367E-04  3.02640161E-04  1.17832670E-10  1.18065390E-10  7.25226509E-04  2.93492731E-04  3.23109131E-04       0.00519396  2.33326771E-04  2.44185011E-06  1.65688346E-05
           0.00853336  9.64857296E-07  9.65002728E-04       0.00756372       0.00353153  2.25418953E-10  1.12935991E-10  5.59459049E-04  4.44923605E-04  1.31870392E-04  3.63508989E-04  2.57702822E-04       0.00312972  4.90351178E-04  7.03227604E-04       0.00174484  7.60165905E-04  2.09210829E-06  1.23904597E-06  3.30170655E-07
           0.00442201  8.34830399E-04  6.45062440E-04       0.00419536       0.00407584       0.00233507       0.01081121       0.00385552       0.00172921  7.46886721E-05  2.71963920E-04  8.96886054E-04       0.00731530       0.00153114  5.72527772E-04       0.01228658       0.02123584  4.31448131E-04  1.75808413E-04  4.45649274E-07
           0.00128076       0.00233654       0.00236682       0.00182400       0.00161376       0.00148216       0.00688538       0.00231685       0.00110356  2.34191290E-05       0.00116155       0.00140465       0.00823021       0.00650204       0.00274104       0.01186495  9.42055698E-04  2.08994690E-04  4.85023129E-06  5.76416615E-07
      3.74668390E-06  6.03483003E-04       0.00709633       0.00885235       0.01458894       0.00144419       0.00342073       0.00465379       0.00435338  6.82229755E-04  2.37497589E-04  2.52945588E-04       0.00172842       0.00111070  5.44326363E-05       0.00171564       0.00567566       0.00451115       0.00227452       0.00193010
      1.87257989E-05  1.18574088E-05  5.63397585E-06       0.01157545       0.02714976       0.00366421       0.00698932       0.00535664       0.00219151  9.54644524E-04  2.51328824E-05  3.85285572E-05  6.67574455E-04  7.02325711E-06  7.31145313E-07       0.00104392       0.00284255       0.00205760       0.01578779       0.01864003
    INTERNAL  FACTOR  1.0
      5.67815144E-07  7.39017727E-05  4.45704568E-07  2.56679707E-07       0.00219228  1.96595839E-05       0.00272766  9.75211311E-04       0.00161736       0.00265158  6.68498752E-05  1.54547415E-04  1.02495858E-10  1.00000001E-10  2.30962943E-10  9.53854196E-05  5.66072495E-04  1.01790364E-10  1.09213412E-10  2.38035793E-04
      1.21527047E-06  1.64386093E-07  1.06491206E-06  5.54737409E-06  6.75023645E-05  3.93494266E-04       0.01023867       0.00390412       0.00167732       0.00158721  1.36560062E-04  3.94784776E-04  1.16545122E-10  1.00000001E-10  3.87352280E-10  3.93286385E-05  1.01785769E-10  1.00000001E-10  1.00000001E-10  1.00000001E-10
      8.53173798E-07  2.94258738E-07  3.27837408E-07  1.45366352E-06  1.24218167E-10  1.05607055E-10  6.84216430E-05       0.00165756       0.00134801       0.00187577  3.40430413E-04  6.24293975E-06  1.14366774E-10  1.00000001E-10  1.03708104E-05  2.49469474E-05  1.04467697E-10  4.77165614E-08  1.85142574E-07  6.32447194E-07
      4.78940093E-08  4.35236097E-08  8.12397770E-07       0.00374956  1.32149085E-10  1.00000001E-10  1.00000001E-10  2.43114871E-10       0.00136905       0.00112093  2.17250151E-10  1.00000001E-10  1.00000001E-10  1.09301460E-10  1.07260426E-04  4.50795138E-10  1.64050182E-10  2.33893031E-07  3.55571514E-06  3.73838336E-07
      2.26099931E-10  1.00000001E-10  2.30754975E-10       0.00641043  3.32769130E-10  1.00000001E-10  1.00000001E-10  3.51248013E-10  1.64042961E-04  2.16874705E-04  2.21186172E-10  1.00000001E-10  1.00000001E-10  1.72700711E-10  5.48717778E-05  4.58132577E-10  1.67596120E-10  2.16223767E-07  1.98504564E-07  1.14404986E-10
      1.01730066E-10  1.00000001E-10  1.65540560E-10  3.65325485E-04  9.92213448E-04  1.02495859E-10  1.00000001E-10  2.19110120E-10  6.97720543E-07  4.46130703E-06  1.65781475E-04  2.34347892E-04       0.00271424  1.06129007E-04  6.05794427E-04  7.80740491E-06  1.16411213E-05  1.86726802E-05  2.07119403E-07  1.00000001E-10
      2.11500580E-10  1.00000001E-10  1.00000001E-10  1.09384382E-10       0.00126602  6.00325969E-04  4.19955334E-05  7.31556330E-05  5.70352640E-04  1.08740766E-05       0.00110090       0.01047421       0.01386509  4.55058894E-04  1.00968406E-10  7.42241443E-04  3.50582277E-05  2.21329647E-05  4.69743894E-10  1.00000001E-10
           0.00585856  1.35889471E-10  1.00000001E-10  2.27864339E-10  8.90346423E-04  8.36218373E-04  3.54637428E-04  4.67217120E-04  3.50865664E-05  1.27837342E-06       0.00257614       0.01025361       0.01024552       0.00484497  2.44437156E-10  1.09212967E-10  1.20468172E-10  1.03671032E-06  1.01790101E-10  1.00000001E-10
           0.00175850  1.20164140E-10  1.00000001E-10  3.12807800E-10       0.00105647  2.12302942E-10  5.13221728E-04  5.78355389E-05  1.72191234E-04  2.64164293E-06  1.04124308E-04  3.75617059E-06  6.41608472E-04  1.01790364E-10  1.20164139E-10  2.11884237E-10  1.16290487E-10       0.00296437       0.00150574       0.00158679
      1.00000001E-10  1.61971389E-07  3.29858765E-10  2.66875062E-10  4.92186432E-07  7.27615656E-04  1.78887073E-04  1.65540652E-10  2.63227041E-05  2.15299069E-10  1.00000001E-10  1.04229539E-10  2.17612433E-04  1.10961512E-10  1.00000001E-10  3.31415510E-04  1.48129825E-10       0.00320769       0.01294511       0.01677448
    INTERNAL  FACTOR  1.0
      1.05607127E-10  1.00000001E-10  1.00000001E-10  1.00000001E-10  1.22700205E-10  1.00000001E-10  1.67091730E-10  1.14830155E-10  1.00000001E-10  3.42694916E-10  4.09258217E-05  2.40135115E-10  1.00000001E-10  1.00000001E-10  1.00000001E-10  3.62104612E-10  1.00000001E-10  1.00000001E-10  1.00000001E-10  1.00000001E-10
      5.22969209E-08  1.00000001E-10  1.00000001E-10  1.64170170E-10  1.00000001E-10  1.00000001E-10  8.24794128E-06  2.27096586E-10  1.00000001E-10  1.65465471E-10  4.96834234E-05  2.26538870E-10  1.00000001E-10  1.00000001E-10  1.09950737E-10  1.20556084E-10  1.00000001E-10  1.00000001E-10  1.00000001E-10  1.00000001E-10
      4.22019893E-04  1.03262404E-10  1.00000001E-10  1.17805784E-10  1.00000001E-10  1.00000001E-10  2.13444063E-10  1.00000001E-10  1.00000001E-10  1.00000001E-10  1.00000001E-10  1.00000001E-10  1.00000001E-10  1.00000001E-10  1.12374474E-10  1.14291055E-10  1.00000001E-10  1.66444932E-10  1.45601413E-06  2.18640767E-10
      1.00000001E-10  1.00000001E-10  1.00000001E-10  1.15533971E-10  1.00000001E-10  1.00000001E-10  1.00000001E-10  1.00000001E-10  2.02640873E-10  2.18093817E-10  1.00000001E-10  1.00000001E-10  1.00000001E-10  1.00000001E-10  1.00000001E-10  1.00000001E-10  1.00000001E-10  1.80680867E-10  1.76967774E-05  2.26836244E-10
      1.00000001E-10  1.00000001E-10  1.00000001E-10  9.08942127E-08  1.00000001E-10  1.00000001E-10  1.00000001E-10  1.12727070E-10  5.46770071E-08  2.16621131E-10  1.00000001E-10  1.00000001E-10  1.00000001E-10  1.00000001E-10  1.00000001E-10  1.00000001E-10  1.00000001E-10  1.05846763E-10  2.15519556E-10  1.00000001E-10
      1.00000001E-10  1.00000001E-10  1.00000001E-10  1.00000001E-10  1.00000001E-10  1.00000001E-10  1.00000001E-10  1.00000001E-10  1.00000001E-10  1.00000001E-10  1.00000001E-10  1.00000001E-10  1.00000001E-10  1.00000001E-10  1.00000001E-10  1.00000001E-10  1.04357378E-10  4.96235199E-07  1.14829554E-10  1.00000001E-10
      1.00000001E-10  1.00000001E-10  1.00000001E-10  1.00000001E-10  1.00000001E-10  1.00000001E-10  1.00000001E-10  1.00000001E-10  1.19312442E-10  1.00000001E-10  1.17014916E-10  6.35856520E-04  5.86410046E-04  1.00000001E-10  1.00000001E-10  1.00000001E-10  1.00000001E-10  1.09587445E-10  1.21044539E-10  1.00000001E-10
      1.19008745E-10  1.00000001E-10  1.00000001E-10  1.00000001E-10  1.00000001E-10  1.12613209E-10  1.16198725E-07  7.81242873E-07  5.75858912E-06  1.00000001E-10  1.69300059E-10  3.09332737E-04  1.00000001E-10  1.00000001E-10  1.00000001E-10  1.00000001E-10  1.00000001E-10  1.00000001E-10  1.00000001E-10  1.00000001E-10
      1.00000001E-10  1.00000001E-10  1.00000001E-10  1.00000001E-10  1.00000001E-10  1.00000001E-10  1.00000001E-10  2.36683248E-10  1.39790437E-05  1.00000001E-10  1.00000001E-10  1.00000001E-10  1.00000001E-10  1.00000001E-10  1.00000001E-10  1.00000001E-10  1.00000001E-10  1.00000001E-10  1.00000001E-10  1.00000001E-10
      1.00000001E-10  1.00000001E-10  1.00000001E-10  1.00000001E-10  1.00990259E-10  1.00000001E-10  1.00000001E-10  1.00000001E-10  1.01790350E-10  1.00000001E-10  1.00000001E-10  1.00000001E-10  1.00000001E-10  1.00000001E-10  1.00000001E-10  1.00000001E-10  1.00000001E-10  1.00000001E-10  1.00000001E-10  3.10072495E-10
    INTERNAL  FACTOR  1.0
      1.00000001E-10  1.00000001E-10  1.00000001E-10  1.00000001E-10  1.00000001E-10  1.00000001E-10  1.00000001E-10  1.00000001E-10  1.00000001E-10  1.09301324E-10  9.90111520E-06  1.11508528E-10  1.00000001E-10  1.00000001E-10  1.00000001E-10  1.00000001E-10  1.00000001E-10  1.00000001E-10  1.00000001E-10  1.00000001E-10
      1.00000001E-10  1.00000001E-10  1.00000001E-10  1.00000001E-10  1.00000001E-10  1.00000001E-10  1.00000001E-10  1.00000001E-10  1.00000001E-10  1.00000001E-10  1.65537651E-10  1.01790354E-10  1.00000001E-10  1.00000001E-10  1.00000001E-10  1.00000001E-10  1.00000001E-10  1.00000001E-10  1.00000001E-10  1.00000001E-10
      1.00000001E-10  1.00000001E-10  1.00000001E-10  1.00000001E-10  1.00000001E-10  1.00000001E-10  1.00000001E-10  1.00000001E-10  1.00000001E-10  1.00000001E-10  1.00000001E-10  1.00000001E-10  1.00000001E-10  1.00000001E-10  1.00000001E-10  1.00000001E-10  1.00000001E-10  1.00000001E-10  1.00000001E-10  1.00000001E-10
      1.00000001E-10  1.00000001E-10  1.00000001E-10  1.00000001E-10  1.00000001E-10  1.00000001E-10  1.00000001E-10  1.00000001E-10  1.00000001E-10  1.00000001E-10  1.00000001E-10  1.00000001E-10  1.00000001E-10  1.00000001E-10  1.00000001E-10  1.00000001E-10  1.00000001E-10  1.00000001E-10  2.16864081E-10  1.00000001E-10
      1.00000001E-10  1.00000001E-10  1.00000001E-10  1.00000001E-10  1.00000001E-10  1.00000001E-10  1.00000001E-10  1.00000001E-10  1.00000001E-10  1.00000001E-10  1.00000001E-10  1.00000001E-10  1.00000001E-10  1.00000001E-10  1.00000001E-10  1.00000001E-10  1.00000001E-10  1.00000001E-10  1.00000001E-10  1.00000001E-10
      1.00000001E-10  1.00000001E-10  1.00000001E-10  1.00000001E-10  1.00000001E-10  1.00000001E-10  1.00000001E-10  1.00000001E-10  1.00000001E-10  1.00000001E-10  1.00000001E-10  1.00000001E-10  1.00000001E-10  1.00000001E-10  1.00000001E-10  1.00000001E-10  1.00000001E-10  1.00000001E-10  1.00000001E-10  1.00000001E-10
      1.00000001E-10  1.00000001E-10  1.00000001E-10  1.00000001E-10  1.00000001E-10  1.00000001E-10  1.00000001E-10  1.00000001E-10  1.00000001E-10  1.00000001E-10  1.00000001E-10  1.00000001E-10  1.00000001E-10  1.00000001E-10  1.00000001E-10  1.00000001E-10  1.00000001E-10  1.00000001E-10  1.00000001E-10  1.00000001E-10
      1.00000001E-10  1.00000001E-10  1.00000001E-10  1.00000001E-10  1.00000001E-10  1.00000001E-10  1.00000001E-10  1.00000001E-10  1.00000001E-10  1.00000001E-10  1.00000001E-10  1.00000001E-10  1.00000001E-10  1.00000001E-10  1.00000001E-10  1.00000001E-10  1.00000001E-10  1.00000001E-10  1.00000001E-10  1.00000001E-10
      1.00000001E-10  1.00000001E-10  1.00000001E-10  1.00000001E-10  1.00000001E-10  1.00000001E-10  1.00000001E-10  1.00000001E-10  1.00000001E-10  1.00000001E-10  1.00000001E-10  1.00000001E-10  1.00000001E-10  1.00000001E-10  1.00000001E-10  1.00000001E-10  1.00000001E-10  1.00000001E-10  1.00000001E-10  1.00000001E-10
      1.00000001E-10  1.00000001E-10  1.00000001E-10  1.00000001E-10  1.00000001E-10  1.00000001E-10  1.00000001E-10  1.00000001E-10  1.00000001E-10  1.00000001E-10  1.00000001E-10  1.00000001E-10  1.00000001E-10  1.00000001E-10  1.00000001E-10  1.00000001E-10  1.00000001E-10  1.00000001E-10  1.00000001E-10  1.00000001E-10