# File generated by Flopy version 3.9.5 on 11/11/2025 at 11:58:35.
BEGIN options
END options

BEGIN packages
  OC6  test.oc  oc
  IC6  test.ic  ic
  DIS6  test.dis  dis
  NPF6  test.npf  npf
  CHD6  test.chd  chd_0
END packages

