# File generated by Flopy version 3.9.5 on 11/11/2025 at 11:58:35.
BEGIN options
END options

BEGIN griddata
  strt
    CONSTANT       1.00000000
END griddata

