# File generated by Flopy version 3.9.2 on 02/18/2025 at 10:13:24.
BEGIN options
  SAVE_FLOWS
  SAVE_SPECIFIC_DISCHARGE
  SAVE_SATURATION
END options

BEGIN griddata
  icelltype
    CONSTANT  0
  k  LAYERED
    INTERNAL  FACTOR  1.0
      4.46085724E-08  4.46085724E-08  4.46085724E-08  4.46085724E-08  4.46085724E-08  4.46085724E-08  4.46085724E-08  4.46085724E-08  4.46085724E-08  4.46085724E-08  4.46085724E-08  4.46085724E-08  4.46085724E-08  4.46085724E-08  4.46085724E-08  4.46085724E-08  4.46085724E-08  4.46085724E-08  4.46085724E-08  4.46085724E-08  4.46085724E-08  4.46085724E-08  4.46085724E-08  4.46085724E-08  4.46085724E-08  4.46085724E-08  4.46085724E-08  4.46085724E-08  4.46085724E-08  4.46085724E-08  4.46085724E-08  4.46085724E-08  4.46085724E-08  4.46085724E-08  4.46085724E-08
      4.46085724E-08  4.46085724E-08  4.46085724E-08  4.46085724E-08  4.46085724E-08  4.46085724E-08  4.46085724E-08  4.46085724E-08  4.46085724E-08  4.46085724E-08  4.46085724E-08  4.46085724E-08  4.46085724E-08  4.46085724E-08  4.46085724E-08  4.46085724E-08  4.46085724E-08  4.46085724E-08  4.46085724E-08  4.46085724E-08  4.46085724E-08  4.46085724E-08  4.46085724E-08  4.46085724E-08  4.46085724E-08  4.46085724E-08  4.46085724E-08  4.46085724E-08  4.46085724E-08  4.46085724E-08  4.46085724E-08  4.46085724E-08  4.46085724E-08  4.46085724E-08  4.46085724E-08
      4.46085724E-08  4.46085724E-08  4.46085724E-08  4.46085724E-08  4.46085724E-08  4.46085724E-08  4.46085724E-08  4.46085724E-08  4.46085724E-08  4.46085724E-08  4.46085724E-08  4.46085724E-08  4.46085724E-08  4.46085724E-08  4.46085724E-08  4.46085724E-08  4.46085724E-08  4.46085724E-08  4.46085724E-08  4.46085724E-08  4.46085724E-08  4.46085724E-08  4.46085724E-08  4.46085724E-08  4.46085724E-08  4.46085724E-08  4.46085724E-08  4.46085724E-08  4.46085724E-08  4.46085724E-08  4.46085724E-08  4.46085724E-08  4.46085724E-08  4.46085724E-08  4.46085724E-08
      4.46085724E-08  4.46085724E-08  4.46085724E-08  4.46085724E-08  4.46085724E-08  4.46085724E-08  4.46085724E-08  4.46085724E-08  4.46085724E-08  4.46085724E-08  4.46085724E-08  4.46085724E-08  4.46085724E-08  4.46085724E-08  4.46085724E-08  4.46085724E-08  4.46085724E-08  4.46085724E-08  4.46085724E-08  4.46085724E-08  4.46085724E-08  4.46085724E-08  4.46085724E-08  4.46085724E-08  4.46085724E-08  4.46085724E-08  4.46085724E-08  4.46085724E-08  4.46085724E-08  4.46085724E-08  4.46085724E-08  4.46085724E-08  4.46085724E-08  4.46085724E-08  4.46085724E-08
      4.46085724E-08  4.46085724E-08  4.46085724E-08  4.46085724E-08  4.46085724E-08  4.46085724E-08  4.46085724E-08  4.46085724E-08  4.46085724E-08  4.46085724E-08  4.46085724E-08  4.46085724E-08  4.46085724E-08  4.46085724E-08  4.46085724E-08  4.46085724E-08  4.46085724E-08  4.46085724E-08  4.46085724E-08  4.46085724E-08  4.46085724E-08  4.46085724E-08  4.46085724E-08  4.46085724E-08  4.46085724E-08  4.46085724E-08  4.46085724E-08  4.46085724E-08  4.46085724E-08  4.46085724E-08  4.46085724E-08  4.46085724E-08  4.46085724E-08  4.46085724E-08  4.46085724E-08
      4.46085724E-08  4.46085724E-08  4.46085724E-08  4.46085724E-08  4.46085724E-08  4.46085724E-08  4.46085724E-08  4.46085724E-08  4.46085724E-08  4.46085724E-08  4.46085724E-08  4.46085724E-08  4.46085724E-08  4.46085724E-08  4.46085724E-08  4.46085724E-08  4.46085724E-08  4.46085724E-08  4.46085724E-08  4.46085724E-08  4.46085724E-08  4.46085724E-08  4.46085724E-08  4.46085724E-08  4.46085724E-08  4.46085724E-08  4.46085724E-08  4.46085724E-08  4.46085724E-08  4.46085724E-08  4.46085724E-08  4.46085724E-08  4.46085724E-08  4.46085724E-08  4.46085724E-08
      4.46085724E-08  4.46085724E-08  4.46085724E-08  4.46085724E-08  4.46085724E-08  4.46085724E-08  4.46085724E-08  4.46085724E-08  4.46085724E-08  4.46085724E-08  4.46085724E-08  4.46085724E-08  4.46085724E-08  4.46085724E-08  4.46085724E-08  4.46085724E-08  4.46085724E-08  4.46085724E-08  4.46085724E-08  4.46085724E-08  4.46085724E-08  4.46085724E-08  4.46085724E-08  4.46085724E-08  4.46085724E-08  4.46085724E-08  4.46085724E-08  4.46085724E-08  4.46085724E-08  4.46085724E-08  4.46085724E-08  4.46085724E-08  4.46085724E-08  4.46085724E-08  4.46085724E-08
      4.46085724E-08  4.46085724E-08  4.46085724E-08  4.46085724E-08  4.46085724E-08  4.46085724E-08  4.46085724E-08  4.46085724E-08  4.46085724E-08  4.46085724E-08  4.46085724E-08  4.46085724E-08  4.46085724E-08  4.46085724E-08  4.46085724E-08  4.46085724E-08  4.46085724E-08  4.46085724E-08  4.46085724E-08  4.46085724E-08  4.46085724E-08  4.46085724E-08  4.46085724E-08  4.46085724E-08  4.46085724E-08  4.46085724E-08  4.46085724E-08  4.46085724E-08  4.46085724E-08  4.46085724E-08  4.46085724E-08  4.46085724E-08  4.46085724E-08  4.46085724E-08  4.46085724E-08
      4.46085724E-08  4.46085724E-08  4.46085724E-08  4.46085724E-08  4.46085724E-08  4.46085724E-08  4.46085724E-08  4.46085724E-08  4.46085724E-08  4.46085724E-08  4.46085724E-08  4.46085724E-08  4.46085724E-08  4.46085724E-08  4.46085724E-08  4.46085724E-08  4.46085724E-08  4.46085724E-08  4.46085724E-08  4.46085724E-08  4.46085724E-08  4.46085724E-08  4.46085724E-08  4.46085724E-08  4.46085724E-08  4.46085724E-08  4.46085724E-08  4.46085724E-08  4.46085724E-08  4.46085724E-08  4.46085724E-08  4.46085724E-08  4.46085724E-08  4.46085724E-08  4.46085724E-08
      4.46085724E-08  4.46085724E-08  4.46085724E-08  4.46085724E-08  4.46085724E-08  4.46085724E-08  4.46085724E-08  4.46085724E-08  4.46085724E-08  4.46085724E-08  4.46085724E-08  4.46085724E-08  4.46085724E-08  4.46085724E-08  4.46085724E-08  4.46085724E-08  4.46085724E-08  4.46085724E-08  4.46085724E-08  4.46085724E-08  4.46085724E-08  4.46085724E-08  4.46085724E-08  4.46085724E-08  4.46085724E-08  4.46085724E-08  4.46085724E-08  4.46085724E-08  4.46085724E-08  4.46085724E-08  4.46085724E-08  4.46085724E-08  4.46085724E-08  4.46085724E-08  4.46085724E-08
      4.46085724E-08  4.46085724E-08  4.46085724E-08  4.46085724E-08  4.46085724E-08  4.46085724E-08  4.46085724E-08  4.46085724E-08  4.46085724E-08  4.46085724E-08  4.46085724E-08  4.46085724E-08  4.46085724E-08  4.46085724E-08  4.46085724E-08  4.46085724E-08  4.46085724E-08  4.46085724E-08  4.46085724E-08  4.46085724E-08  4.46085724E-08  4.46085724E-08  4.46085724E-08  4.46085724E-08  4.46085724E-08  4.46085724E-08  4.46085724E-08  4.46085724E-08  4.46085724E-08  4.46085724E-08  4.46085724E-08  4.46085724E-08  4.46085724E-08  4.46085724E-08  4.46085724E-08
      4.46085724E-08  4.46085724E-08  4.46085724E-08  4.46085724E-08  4.46085724E-08  4.46085724E-08  4.46085724E-08  4.46085724E-08  4.46085724E-08  4.46085724E-08  4.46085724E-08  4.46085724E-08  4.46085724E-08  4.46085724E-08  4.46085724E-08  4.46085724E-08  4.46085724E-08  4.46085724E-08  4.46085724E-08  4.46085724E-08  4.46085724E-08  4.46085724E-08  4.46085724E-08  4.46085724E-08  4.46085724E-08  4.46085724E-08  4.46085724E-08  4.46085724E-08  4.46085724E-08  4.46085724E-08  4.46085724E-08  4.46085724E-08  4.46085724E-08  4.46085724E-08  4.46085724E-08
      4.46085724E-08  4.46085724E-08  4.46085724E-08  4.46085724E-08  4.46085724E-08  4.46085724E-08  4.46085724E-08  4.46085724E-08  4.46085724E-08  4.46085724E-08  4.46085724E-08  4.46085724E-08  4.46085724E-08  4.46085724E-08  4.46085724E-08  4.46085724E-08  4.46085724E-08  4.46085724E-08  4.46085724E-08  4.46085724E-08  4.46085724E-08  4.46085724E-08  4.46085724E-08  4.46085724E-08  4.46085724E-08  4.46085724E-08  4.46085724E-08  4.46085724E-08  4.46085724E-08  4.46085724E-08  4.46085724E-08  4.46085724E-08  4.46085724E-08  4.46085724E-08  4.46085724E-08
      4.46085724E-08  4.46085724E-08  4.46085724E-08  4.46085724E-08  4.46085724E-08  4.46085724E-08  4.46085724E-08  4.46085724E-08  4.46085724E-08  4.46085724E-08  4.46085724E-08  4.46085724E-08  4.46085724E-08  4.46085724E-08  4.46085724E-08  4.46085724E-08  4.46085724E-08  4.46085724E-08  4.46085724E-08  4.46085724E-08  4.46085724E-08  4.46085724E-08  4.46085724E-08  4.46085724E-08  4.46085724E-08  4.46085724E-08  4.46085724E-08  4.46085724E-08  4.46085724E-08  4.46085724E-08  4.46085724E-08  4.46085724E-08  4.46085724E-08  4.46085724E-08  4.46085724E-08
      4.46085724E-08  4.46085724E-08  4.46085724E-08  4.46085724E-08  4.46085724E-08  4.46085724E-08  4.46085724E-08  4.46085724E-08  4.46085724E-08  4.46085724E-08  4.46085724E-08  4.46085724E-08  4.46085724E-08  4.46085724E-08  4.46085724E-08  4.46085724E-08  4.46085724E-08  4.46085724E-08  4.46085724E-08  4.46085724E-08  4.46085724E-08  4.46085724E-08  4.46085724E-08  4.46085724E-08  4.46085724E-08  4.46085724E-08  4.46085724E-08  4.46085724E-08  4.46085724E-08  4.46085724E-08  4.46085724E-08  4.46085724E-08  4.46085724E-08  4.46085724E-08  4.46085724E-08
      4.46085724E-08  4.46085724E-08  4.46085724E-08  4.46085724E-08  4.46085724E-08  4.46085724E-08  4.46085724E-08  4.46085724E-08  4.46085724E-08  4.46085724E-08  4.46085724E-08  4.46085724E-08  4.46085724E-08  4.46085724E-08  4.46085724E-08  4.46085724E-08  4.46085724E-08  4.46085724E-08  4.46085724E-08  4.46085724E-08  4.46085724E-08  4.46085724E-08  4.46085724E-08  4.46085724E-08  4.46085724E-08  4.46085724E-08  4.46085724E-08  4.46085724E-08  4.46085724E-08  4.46085724E-08  4.46085724E-08  4.46085724E-08  4.46085724E-08  4.46085724E-08  4.46085724E-08
      4.46085724E-08  4.46085724E-08  4.46085724E-08  4.46085724E-08  4.46085724E-08  4.46085724E-08  4.46085724E-08  4.46085724E-08  4.46085724E-08  4.46085724E-08  4.46085724E-08  4.46085724E-08  4.46085724E-08  4.46085724E-08  4.46085724E-08  4.46085724E-08  4.46085724E-08  4.46085724E-08  4.46085724E-08  4.46085724E-08  4.46085724E-08  4.46085724E-08  4.46085724E-08  4.46085724E-08  4.46085724E-08  4.46085724E-08  4.46085724E-08  4.46085724E-08  4.46085724E-08  4.46085724E-08  4.46085724E-08  4.46085724E-08  4.46085724E-08  4.46085724E-08  4.46085724E-08
      4.46085724E-08  4.46085724E-08  4.46085724E-08  4.46085724E-08  4.46085724E-08  4.46085724E-08  4.46085724E-08  4.46085724E-08  4.46085724E-08  4.46085724E-08  4.46085724E-08  4.46085724E-08  4.46085724E-08  4.46085724E-08  4.46085724E-08  4.46085724E-08  4.46085724E-08  4.46085724E-08  4.46085724E-08  4.46085724E-08  4.46085724E-08  4.46085724E-08  4.46085724E-08  4.46085724E-08  4.46085724E-08  4.46085724E-08  4.46085724E-08  4.46085724E-08  4.46085724E-08  4.46085724E-08  4.46085724E-08  4.46085724E-08  4.46085724E-08  4.46085724E-08  4.46085724E-08
      4.46085724E-08  4.46085724E-08  4.46085724E-08  4.46085724E-08  4.46085724E-08  4.46085724E-08  4.46085724E-08  4.46085724E-08  4.46085724E-08  4.46085724E-08  4.46085724E-08  4.46085724E-08  4.46085724E-08  4.46085724E-08  4.46085724E-08  4.46085724E-08  4.46085724E-08  4.46085724E-08  4.46085724E-08  4.46085724E-08  4.46085724E-08  4.46085724E-08  4.46085724E-08  4.46085724E-08  4.46085724E-08  4.46085724E-08  4.46085724E-08  4.46085724E-08  4.46085724E-08  4.46085724E-08  4.46085724E-08  4.46085724E-08  4.46085724E-08  4.46085724E-08  4.46085724E-08
      4.46085724E-08  4.46085724E-08  4.46085724E-08  4.46085724E-08  4.46085724E-08  4.46085724E-08  4.46085724E-08  4.46085724E-08  4.46085724E-08  4.46085724E-08  4.46085724E-08  4.46085724E-08  4.46085724E-08  4.46085724E-08  4.46085724E-08  4.46085724E-08  4.46085724E-08  4.46085724E-08  4.46085724E-08  4.46085724E-08  4.46085724E-08  4.46085724E-08  4.46085724E-08  4.46085724E-08  4.46085724E-08  4.46085724E-08  4.46085724E-08  4.46085724E-08  4.46085724E-08  4.46085724E-08  4.46085724E-08  4.46085724E-08  4.46085724E-08  4.46085724E-08  4.46085724E-08
      4.46085724E-08  4.46085724E-08  4.46085724E-08  4.46085724E-08  4.46085724E-08  4.46085724E-08  4.46085724E-08  4.46085724E-08  4.46085724E-08  4.46085724E-08  4.46085724E-08  4.46085724E-08  4.46085724E-08  4.46085724E-08  4.46085724E-08  4.46085724E-08  4.46085724E-08  4.46085724E-08  4.46085724E-08  4.46085724E-08  4.46085724E-08  4.46085724E-08  4.46085724E-08  4.46085724E-08  4.46085724E-08  4.46085724E-08  4.46085724E-08  4.46085724E-08  4.46085724E-08  4.46085724E-08  4.46085724E-08  4.46085724E-08  4.46085724E-08  4.46085724E-08  4.46085724E-08
      4.46085724E-08  4.46085724E-08  4.46085724E-08  4.46085724E-08  4.46085724E-08  4.46085724E-08  4.46085724E-08  4.46085724E-08  4.46085724E-08  4.46085724E-08  4.46085724E-08  4.46085724E-08  4.46085724E-08  4.46085724E-08  4.46085724E-08  4.46085724E-08  4.46085724E-08  4.46085724E-08  4.46085724E-08  4.46085724E-08  4.46085724E-08  4.46085724E-08  4.46085724E-08  4.46085724E-08  4.46085724E-08  4.46085724E-08  4.46085724E-08  4.46085724E-08  4.46085724E-08  4.46085724E-08  4.46085724E-08  4.46085724E-08  4.46085724E-08  4.46085724E-08  4.46085724E-08
      4.46085724E-08  4.46085724E-08  4.46085724E-08  4.46085724E-08  4.46085724E-08  4.46085724E-08  4.46085724E-08  4.46085724E-08  4.46085724E-08  4.46085724E-08  4.46085724E-08  4.46085724E-08  4.46085724E-08  4.46085724E-08  4.46085724E-08  4.46085724E-08  4.46085724E-08  4.46085724E-08  4.46085724E-08  4.46085724E-08  4.46085724E-08  4.46085724E-08  4.46085724E-08  4.46085724E-08  4.46085724E-08  4.46085724E-08  4.46085724E-08  4.46085724E-08  4.46085724E-08  4.46085724E-08  4.46085724E-08  4.46085724E-08  4.46085724E-08  4.46085724E-08  4.46085724E-08
      4.46085724E-08  4.46085724E-08  4.46085724E-08  4.46085724E-08  4.46085724E-08  4.46085724E-08  4.46085724E-08  4.46085724E-08  4.46085724E-08  4.46085724E-08  4.46085724E-08  4.46085724E-08  4.46085724E-08  4.46085724E-08  4.46085724E-08  4.46085724E-08  4.46085724E-08  4.46085724E-08  4.46085724E-08  4.46085724E-08  4.46085724E-08  4.46085724E-08  4.46085724E-08  4.46085724E-08  4.46085724E-08  4.46085724E-08  4.46085724E-08  4.46085724E-08  4.46085724E-08  4.46085724E-08  4.46085724E-08  4.46085724E-08  4.46085724E-08  4.46085724E-08  4.46085724E-08
      4.46085724E-08  4.46085724E-08  4.46085724E-08  4.46085724E-08  4.46085724E-08  4.46085724E-08  4.46085724E-08  4.46085724E-08  4.46085724E-08  4.46085724E-08  4.46085724E-08  4.46085724E-08  4.46085724E-08  4.46085724E-08  4.46085724E-08  4.46085724E-08  4.46085724E-08  4.46085724E-08  4.46085724E-08  4.46085724E-08  4.46085724E-08  4.46085724E-08  4.46085724E-08  4.46085724E-08  4.46085724E-08  4.46085724E-08  4.46085724E-08  4.46085724E-08  4.46085724E-08  4.46085724E-08  4.46085724E-08  4.46085724E-08  4.46085724E-08  4.46085724E-08  4.46085724E-08
      4.46085724E-08  4.46085724E-08  4.46085724E-08  4.46085724E-08  4.46085724E-08  4.46085724E-08  4.46085724E-08  4.46085724E-08  4.46085724E-08  4.46085724E-08  4.46085724E-08  4.46085724E-08  4.46085724E-08  4.46085724E-08  4.46085724E-08  4.46085724E-08  4.46085724E-08  4.46085724E-08  4.46085724E-08  4.46085724E-08  4.46085724E-08  4.46085724E-08  4.46085724E-08  4.46085724E-08  4.46085724E-08  4.46085724E-08  4.46085724E-08  4.46085724E-08  4.46085724E-08  4.46085724E-08  4.46085724E-08  4.46085724E-08  4.46085724E-08  4.46085724E-08  4.46085724E-08
      4.46085724E-08  4.46085724E-08  4.46085724E-08  4.46085724E-08  4.46085724E-08  4.46085724E-08  4.46085724E-08  4.46085724E-08  4.46085724E-08  4.46085724E-08  4.46085724E-08  4.46085724E-08  4.46085724E-08  4.46085724E-08  4.46085724E-08  4.46085724E-08  4.46085724E-08  4.46085724E-08  4.46085724E-08  4.46085724E-08  4.46085724E-08  4.46085724E-08  4.46085724E-08  4.46085724E-08  4.46085724E-08  4.46085724E-08  4.46085724E-08  4.46085724E-08  4.46085724E-08  4.46085724E-08  4.46085724E-08  4.46085724E-08  4.46085724E-08  4.46085724E-08  4.46085724E-08
      4.46085724E-08  4.46085724E-08  4.46085724E-08  4.46085724E-08  4.46085724E-08  4.46085724E-08  4.46085724E-08  4.46085724E-08  4.46085724E-08  4.46085724E-08  4.46085724E-08  4.46085724E-08  4.46085724E-08  4.46085724E-08  4.46085724E-08  4.46085724E-08  4.46085724E-08  4.46085724E-08  4.46085724E-08  4.46085724E-08  4.46085724E-08  4.46085724E-08  4.46085724E-08  4.46085724E-08  4.46085724E-08  4.46085724E-08  4.46085724E-08  4.46085724E-08  4.46085724E-08  4.46085724E-08  4.46085724E-08  4.46085724E-08  4.46085724E-08  4.46085724E-08  4.46085724E-08
      4.46085724E-08  4.46085724E-08  4.46085724E-08  4.46085724E-08  4.46085724E-08  4.46085724E-08  4.46085724E-08  4.46085724E-08  4.46085724E-08  4.46085724E-08  4.46085724E-08  4.46085724E-08  4.46085724E-08  4.46085724E-08  4.46085724E-08  4.46085724E-08  4.46085724E-08  4.46085724E-08  4.46085724E-08  4.46085724E-08  4.46085724E-08  4.46085724E-08  4.46085724E-08  4.46085724E-08  4.46085724E-08  4.46085724E-08  4.46085724E-08  4.46085724E-08  4.46085724E-08  4.46085724E-08  4.46085724E-08  4.46085724E-08  4.46085724E-08  4.46085724E-08  4.46085724E-08
      4.46085724E-08  4.46085724E-08  4.46085724E-08  4.46085724E-08  4.46085724E-08  4.46085724E-08  4.46085724E-08  4.46085724E-08  4.46085724E-08  4.46085724E-08  4.46085724E-08  4.46085724E-08  4.46085724E-08  4.46085724E-08  4.46085724E-08  4.46085724E-08  4.46085724E-08  4.46085724E-08  4.46085724E-08  4.46085724E-08  4.46085724E-08  4.46085724E-08  4.46085724E-08  4.46085724E-08  4.46085724E-08  4.46085724E-08  4.46085724E-08  4.46085724E-08  4.46085724E-08  4.46085724E-08  4.46085724E-08  4.46085724E-08  4.46085724E-08  4.46085724E-08  4.46085724E-08
      4.46085724E-08  4.46085724E-08  4.46085724E-08  4.46085724E-08  4.46085724E-08  4.46085724E-08  4.46085724E-08  4.46085724E-08  4.46085724E-08  4.46085724E-08  4.46085724E-08  4.46085724E-08  4.46085724E-08  4.46085724E-08  4.46085724E-08  4.46085724E-08  4.46085724E-08  4.46085724E-08  4.46085724E-08  4.46085724E-08  4.46085724E-08  4.46085724E-08  4.46085724E-08  4.46085724E-08  4.46085724E-08  4.46085724E-08  4.46085724E-08  4.46085724E-08  4.46085724E-08  4.46085724E-08  4.46085724E-08  4.46085724E-08  4.46085724E-08  4.46085724E-08  4.46085724E-08
      4.46085724E-08  4.46085724E-08  4.46085724E-08  4.46085724E-08  4.46085724E-08  4.46085724E-08  4.46085724E-08  4.46085724E-08  4.46085724E-08  4.46085724E-08  4.46085724E-08  4.46085724E-08  4.46085724E-08  4.46085724E-08  4.46085724E-08  4.46085724E-08  4.46085724E-08  4.46085724E-08  4.46085724E-08  4.46085724E-08  4.46085724E-08  4.46085724E-08  4.46085724E-08  4.46085724E-08  4.46085724E-08  4.46085724E-08  4.46085724E-08  4.46085724E-08  4.46085724E-08  4.46085724E-08  4.46085724E-08  4.46085724E-08  4.46085724E-08  4.46085724E-08  4.46085724E-08
      4.46085724E-08  4.46085724E-08  4.46085724E-08  4.46085724E-08  4.46085724E-08  4.46085724E-08  4.46085724E-08  4.46085724E-08  4.46085724E-08  4.46085724E-08  4.46085724E-08  4.46085724E-08  4.46085724E-08  4.46085724E-08  4.46085724E-08  4.46085724E-08  4.46085724E-08  4.46085724E-08  4.46085724E-08  4.46085724E-08  4.46085724E-08  4.46085724E-08  4.46085724E-08  4.46085724E-08  4.46085724E-08  4.46085724E-08  4.46085724E-08  4.46085724E-08  4.46085724E-08  4.46085724E-08  4.46085724E-08  4.46085724E-08  4.46085724E-08  4.46085724E-08  4.46085724E-08
      4.46085724E-08  4.46085724E-08  4.46085724E-08  4.46085724E-08  4.46085724E-08  4.46085724E-08  4.46085724E-08  4.46085724E-08  4.46085724E-08  4.46085724E-08  4.46085724E-08  4.46085724E-08  4.46085724E-08  4.46085724E-08  4.46085724E-08  4.46085724E-08  4.46085724E-08  4.46085724E-08  4.46085724E-08  4.46085724E-08  4.46085724E-08  4.46085724E-08  4.46085724E-08  4.46085724E-08  4.46085724E-08  4.46085724E-08  4.46085724E-08  4.46085724E-08  4.46085724E-08  4.46085724E-08  4.46085724E-08  4.46085724E-08  4.46085724E-08  4.46085724E-08  4.46085724E-08
      4.46085724E-08  4.46085724E-08  4.46085724E-08  4.46085724E-08  4.46085724E-08  4.46085724E-08  4.46085724E-08  4.46085724E-08  4.46085724E-08  4.46085724E-08  4.46085724E-08  4.46085724E-08  4.46085724E-08  4.46085724E-08  4.46085724E-08  4.46085724E-08  4.46085724E-08  4.46085724E-08  4.46085724E-08  4.46085724E-08  4.46085724E-08  4.46085724E-08  4.46085724E-08  4.46085724E-08  4.46085724E-08  4.46085724E-08  4.46085724E-08  4.46085724E-08  4.46085724E-08  4.46085724E-08  4.46085724E-08  4.46085724E-08  4.46085724E-08  4.46085724E-08  4.46085724E-08
    INTERNAL  FACTOR  1.0
      4.46085724E-08  4.46085724E-08  4.46085724E-08  4.46085724E-08  4.46085724E-08  4.46085724E-08  4.46085724E-08  4.46085724E-08  4.46085724E-08  4.46085724E-08  4.46085724E-08  4.46085724E-08  4.46085724E-08  4.46085724E-08  4.46085724E-08  4.46085724E-08  4.46085724E-08  4.46085724E-08  4.46085724E-08  4.46085724E-08  4.46085724E-08  4.46085724E-08  4.46085724E-08  4.46085724E-08  4.46085724E-08  4.46085724E-08  4.46085724E-08  4.46085724E-08  4.46085724E-08  4.46085724E-08  4.46085724E-08  4.46085724E-08  4.46085724E-08  4.46085724E-08  4.46085724E-08
      4.46085724E-08  4.46085724E-08  4.46085724E-08  4.46085724E-08  4.46085724E-08  4.46085724E-08  4.46085724E-08  4.46085724E-08  4.46085724E-08  4.46085724E-08  4.46085724E-08  4.46085724E-08  4.46085724E-08  4.46085724E-08  4.46085724E-08  4.46085724E-08  4.46085724E-08  4.46085724E-08  4.46085724E-08  4.46085724E-08  4.46085724E-08  4.46085724E-08  4.46085724E-08  4.46085724E-08  4.46085724E-08  4.46085724E-08  4.46085724E-08  4.46085724E-08  4.46085724E-08  4.46085724E-08  4.46085724E-08  4.46085724E-08  4.46085724E-08  4.46085724E-08  4.46085724E-08
      4.46085724E-08  4.46085724E-08  4.46085724E-08  4.46085724E-08  4.46085724E-08  4.46085724E-08  4.46085724E-08  4.46085724E-08  4.46085724E-08  4.46085724E-08  4.46085724E-08  4.46085724E-08  4.46085724E-08  4.46085724E-08  4.46085724E-08  4.46085724E-08  4.46085724E-08  4.46085724E-08  4.46085724E-08  4.46085724E-08  4.46085724E-08  4.46085724E-08  4.46085724E-08  4.46085724E-08  4.46085724E-08  4.46085724E-08  4.46085724E-08  4.46085724E-08  4.46085724E-08  4.46085724E-08  4.46085724E-08  4.46085724E-08  4.46085724E-08  4.46085724E-08  4.46085724E-08
      4.46085724E-08  4.46085724E-08  4.46085724E-08  4.46085724E-08  4.46085724E-08  4.46085724E-08  4.46085724E-08  4.46085724E-08  4.46085724E-08  4.46085724E-08  4.46085724E-08  4.46085724E-08  4.46085724E-08  4.46085724E-08  4.46085724E-08  4.46085724E-08  4.46085724E-08  4.46085724E-08  4.46085724E-08  4.46085724E-08  4.46085724E-08  4.46085724E-08  4.46085724E-08  4.46085724E-08  4.46085724E-08  4.46085724E-08  4.46085724E-08  4.46085724E-08  4.46085724E-08  4.46085724E-08  4.46085724E-08  4.46085724E-08  4.46085724E-08  4.46085724E-08  4.46085724E-08
      4.46085724E-08  4.46085724E-08  4.46085724E-08  4.46085724E-08  4.46085724E-08  4.46085724E-08  4.46085724E-08  4.46085724E-08  4.46085724E-08  4.46085724E-08  4.46085724E-08  4.46085724E-08  4.46085724E-08  4.46085724E-08  4.46085724E-08  4.46085724E-08  4.46085724E-08  4.46085724E-08  4.46085724E-08  4.46085724E-08  4.46085724E-08  4.46085724E-08  4.46085724E-08  4.46085724E-08  4.46085724E-08  4.46085724E-08  4.46085724E-08  4.46085724E-08  4.46085724E-08  4.46085724E-08  4.46085724E-08  4.46085724E-08  4.46085724E-08  4.46085724E-08  4.46085724E-08
      4.46085724E-08  4.46085724E-08  4.46085724E-08  4.46085724E-08  4.46085724E-08  4.46085724E-08  4.46085724E-08  4.46085724E-08  4.46085724E-08  4.46085724E-08  4.46085724E-08  4.46085724E-08  4.46085724E-08  4.46085724E-08  4.46085724E-08  4.46085724E-08  4.46085724E-08  4.46085724E-08  4.46085724E-08  4.46085724E-08  4.46085724E-08  4.46085724E-08  4.46085724E-08  4.46085724E-08  4.46085724E-08  4.46085724E-08  4.46085724E-08  4.46085724E-08  4.46085724E-08  4.46085724E-08  4.46085724E-08  4.46085724E-08  4.46085724E-08  4.46085724E-08  4.46085724E-08
      4.46085724E-08  4.46085724E-08  4.46085724E-08  4.46085724E-08  4.46085724E-08  4.46085724E-08  4.46085724E-08  4.46085724E-08  4.46085724E-08  4.46085724E-08  4.46085724E-08  4.46085724E-08  4.46085724E-08  4.46085724E-08  4.46085724E-08  4.46085724E-08  4.46085724E-08  4.46085724E-08  4.46085724E-08  4.46085724E-08  4.46085724E-08  4.46085724E-08  4.46085724E-08  4.46085724E-08  4.46085724E-08  4.46085724E-08  4.46085724E-08  4.46085724E-08  4.46085724E-08  4.46085724E-08  4.46085724E-08  4.46085724E-08  4.46085724E-08  4.46085724E-08  4.46085724E-08
      4.46085724E-08  4.46085724E-08  4.46085724E-08  4.46085724E-08  4.46085724E-08  4.46085724E-08  4.46085724E-08  4.46085724E-08  4.46085724E-08  4.46085724E-08  4.46085724E-08  4.46085724E-08  4.46085724E-08  4.46085724E-08  4.46085724E-08  4.46085724E-08  4.46085724E-08  4.46085724E-08  4.46085724E-08  4.46085724E-08  4.46085724E-08  4.46085724E-08  4.46085724E-08  4.46085724E-08  4.46085724E-08  4.46085724E-08  4.46085724E-08  4.46085724E-08  4.46085724E-08  4.46085724E-08  4.46085724E-08  4.46085724E-08  4.46085724E-08  4.46085724E-08  4.46085724E-08
      4.46085724E-08  4.46085724E-08  4.46085724E-08  4.46085724E-08  4.46085724E-08  4.46085724E-08  4.46085724E-08  4.46085724E-08  4.46085724E-08  4.46085724E-08  4.46085724E-08  4.46085724E-08  4.46085724E-08  4.46085724E-08  4.46085724E-08  4.46085724E-08  4.46085724E-08  4.46085724E-08  4.46085724E-08  4.46085724E-08  4.46085724E-08  4.46085724E-08  4.46085724E-08  4.46085724E-08  4.46085724E-08  4.46085724E-08  4.46085724E-08  4.46085724E-08  4.46085724E-08  4.46085724E-08  4.46085724E-08  4.46085724E-08  4.46085724E-08  4.46085724E-08  4.46085724E-08
      4.46085724E-08  4.46085724E-08  4.46085724E-08  4.46085724E-08  4.46085724E-08  4.46085724E-08  4.46085724E-08  4.46085724E-08  4.46085724E-08  4.46085724E-08  4.46085724E-08  4.46085724E-08  4.46085724E-08  4.46085724E-08  4.46085724E-08  4.46085724E-08  4.46085724E-08  4.46085724E-08  4.46085724E-08  4.46085724E-08  4.46085724E-08  4.46085724E-08  4.46085724E-08  4.46085724E-08  4.46085724E-08  4.46085724E-08  4.46085724E-08  4.46085724E-08  4.46085724E-08  4.46085724E-08  4.46085724E-08  4.46085724E-08  4.46085724E-08  4.46085724E-08  4.46085724E-08
      4.46085724E-08  4.46085724E-08  4.46085724E-08  4.46085724E-08  4.46085724E-08  4.46085724E-08  4.46085724E-08  4.46085724E-08  4.46085724E-08  4.46085724E-08  4.46085724E-08  4.46085724E-08  4.46085724E-08  4.46085724E-08  4.46085724E-08  4.46085724E-08  4.46085724E-08  4.46085724E-08  4.46085724E-08  4.46085724E-08  4.46085724E-08  4.46085724E-08  4.46085724E-08  4.46085724E-08  4.46085724E-08  4.46085724E-08  4.46085724E-08  4.46085724E-08  4.46085724E-08  4.46085724E-08  4.46085724E-08  4.46085724E-08  4.46085724E-08  4.46085724E-08  4.46085724E-08
      4.46085724E-08  4.46085724E-08  4.46085724E-08  4.46085724E-08  4.46085724E-08  4.46085724E-08  4.46085724E-08  4.46085724E-08  4.46085724E-08  4.46085724E-08  4.46085724E-08  4.46085724E-08  4.46085724E-08  4.46085724E-08  4.46085724E-08  4.46085724E-08  4.46085724E-08  4.46085724E-08  4.46085724E-08  4.46085724E-08  4.46085724E-08  4.46085724E-08  4.46085724E-08  4.46085724E-08  4.46085724E-08  4.46085724E-08  4.46085724E-08  4.46085724E-08  4.46085724E-08  4.46085724E-08  4.46085724E-08  4.46085724E-08  4.46085724E-08  4.46085724E-08  4.46085724E-08
      4.46085724E-08  4.46085724E-08  4.46085724E-08  4.46085724E-08  4.46085724E-08  4.46085724E-08  4.46085724E-08  4.46085724E-08  4.46085724E-08  4.46085724E-08  4.46085724E-08  4.46085724E-08  4.46085724E-08  4.46085724E-08  4.46085724E-08  4.46085724E-08  4.46085724E-08  4.46085724E-08  4.46085724E-08  4.46085724E-08  4.46085724E-08  4.46085724E-08  4.46085724E-08  4.46085724E-08  4.46085724E-08  4.46085724E-08  4.46085724E-08  4.46085724E-08  4.46085724E-08  4.46085724E-08  4.46085724E-08  4.46085724E-08  4.46085724E-08  4.46085724E-08  4.46085724E-08
      4.46085724E-08  4.46085724E-08  4.46085724E-08  4.46085724E-08  4.46085724E-08  4.46085724E-08  4.46085724E-08  4.46085724E-08  4.46085724E-08  4.46085724E-08  4.46085724E-08  4.46085724E-08  4.46085724E-08  4.46085724E-08  4.46085724E-08  4.46085724E-08  4.46085724E-08  4.46085724E-08  4.46085724E-08  4.46085724E-08  4.46085724E-08  4.46085724E-08  4.46085724E-08  4.46085724E-08  4.46085724E-08  4.46085724E-08  4.46085724E-08  4.46085724E-08  4.46085724E-08  4.46085724E-08  4.46085724E-08  4.46085724E-08  4.46085724E-08  4.46085724E-08  4.46085724E-08
      4.46085724E-08  4.46085724E-08  4.46085724E-08  4.46085724E-08  4.46085724E-08  4.46085724E-08  4.46085724E-08  4.46085724E-08  4.46085724E-08  4.46085724E-08  4.46085724E-08  4.46085724E-08  4.46085724E-08  4.46085724E-08  4.46085724E-08  4.46085724E-08  4.46085724E-08  4.46085724E-08  4.46085724E-08  4.46085724E-08  4.46085724E-08  4.46085724E-08  4.46085724E-08  4.46085724E-08  4.46085724E-08  4.46085724E-08  4.46085724E-08  4.46085724E-08  4.46085724E-08  4.46085724E-08  4.46085724E-08  4.46085724E-08  4.46085724E-08  4.46085724E-08  4.46085724E-08
      4.46085724E-08  4.46085724E-08  4.46085724E-08  4.46085724E-08  4.46085724E-08  4.46085724E-08  4.46085724E-08  4.46085724E-08  4.46085724E-08  4.46085724E-08  4.46085724E-08  4.46085724E-08  4.46085724E-08  4.46085724E-08  4.46085724E-08  4.46085724E-08  4.46085724E-08  4.46085724E-08  4.46085724E-08  4.46085724E-08  4.46085724E-08  4.46085724E-08  4.46085724E-08  4.46085724E-08  4.46085724E-08  4.46085724E-08  4.46085724E-08  4.46085724E-08  4.46085724E-08  4.46085724E-08  4.46085724E-08  4.46085724E-08  4.46085724E-08  4.46085724E-08  4.46085724E-08
      4.46085724E-08  4.46085724E-08  4.46085724E-08  4.46085724E-08  4.46085724E-08  4.46085724E-08  4.46085724E-08  4.46085724E-08  4.46085724E-08  4.46085724E-08  4.46085724E-08  4.46085724E-08  4.46085724E-08  4.46085724E-08  4.46085724E-08  4.46085724E-08  4.46085724E-08  4.46085724E-08  4.46085724E-08  4.46085724E-08  4.46085724E-08  4.46085724E-08  4.46085724E-08  4.46085724E-08  4.46085724E-08  4.46085724E-08  4.46085724E-08  4.46085724E-08  4.46085724E-08  4.46085724E-08  4.46085724E-08  4.46085724E-08  4.46085724E-08  4.46085724E-08  4.46085724E-08