# File generated by Flopy version 3.9.2 on 03/10/2025 at 15:19:30.
BEGIN options
  SAVE_FLOWS
  SAVE_SPECIFIC_DISCHARGE
  SAVE_SATURATION
END options

BEGIN griddata
  icelltype
    CONSTANT  0
  k
    INTERNAL  FACTOR  1.0
    5.32120138E-05  1.21453932E-05  6.75502739E-05  5.20301610E-06  3.52717953E-06  3.48907782E-04  5.06344809E-05  4.82458744E-05  7.60925428E-05  1.71615893E-05  2.82603447E-06  2.55060283E-05  7.68911054E-05  1.61880417E-05  1.98570283E-05  1.28869152E-07  4.37698992E-08  6.20169536E-05  5.74638085E-05  3.42336245E-05
    2.33684193E-05  1.06389180E-06  1.27284624E-05  1.40049846E-04  1.62419001E-05  2.76087070E-06  3.02409725E-05  8.40657534E-07  3.47051929E-06  8.19297808E-05  1.19697485E-04  6.17258917E-05  1.19789054E-04  1.61498028E-05  3.17554725E-05  2.95879301E-05  4.40766833E-06  7.95541775E-06  7.51239119E-05  4.29955602E-05
    1.00302281E-05  4.69516335E-05  5.67676277E-05  2.66120185E-05  1.77268956E-04  2.03878230E-05  3.76923089E-05  3.82233808E-05  8.38893022E-05  3.57526931E-05  9.25145436E-05  1.04743254E-04  1.35742471E-04  1.23567654E-04  1.53847712E-04  8.84114468E-05  1.63544958E-04  8.95765304E-05  2.61326011E-05  7.54990718E-08
    2.89346618E-05  1.61087135E-05  3.15791547E-05  1.77806135E-05  1.86795109E-07  1.53117087E-04  1.70265175E-04  1.35579538E-04  7.33570698E-05  1.33073106E-04  7.46319162E-05  1.62954190E-04  9.51604841E-05  1.62154283E-04  1.30857937E-04  8.01738016E-05  6.64995532E-05  8.36766655E-05  8.03395654E-05  3.75725461E-05
    9.29090011E-05  8.62677169E-05  9.66063249E-05  8.86197118E-05  7.89708519E-05  6.76036446E-05  8.02465237E-05  6.77727732E-05  1.49453659E-05  3.70638556E-06  4.28555539E-05  1.47969855E-05  5.32495252E-05  1.45140873E-05  8.55465018E-06  1.05473930E-05  8.16084892E-06  1.12724068E-05  8.99725362E-05  7.63404918E-05
    6.42354989E-05  7.47743403E-05  6.28189069E-05  8.71894680E-05  6.65875076E-05  4.96306363E-05  3.48380770E-05  4.81796580E-05  3.99107165E-05  2.61817077E-05  2.27136419E-05  3.33986232E-05  2.64593933E-05  4.72435730E-05  3.98009084E-05  4.68578676E-05  3.97548897E-05  3.35821462E-05  2.81023555E-05  3.36556427E-05
    2.85542854E-05  2.05134752E-07  3.34241840E-06  2.72959579E-07  5.40283796E-06  1.86188813E-05  1.80559843E-06  3.84223371E-06  1.47672865E-05  1.25322776E-05  1.87290592E-05  1.59453376E-05  6.92634668E-06  5.39399479E-06  1.39120052E-05  9.65370051E-06  2.86152772E-05  2.08157626E-05  1.78309117E-05  2.16495234E-05
    1.85836076E-05  1.55578656E-05  1.66402392E-05  1.64474056E-05  1.77483801E-05  3.56528721E-05  3.26471168E-05  4.12514263E-05  3.82608287E-05  3.34868110E-05  3.82363531E-05  4.03106808E-05  4.36882043E-05  2.96719355E-05  3.53530779E-05  3.48908042E-05  3.76127530E-05  4.89524688E-05  6.26155725E-05  5.28642538E-05
    6.98782866E-05  4.47539805E-05  6.08623126E-05  4.81562756E-05  7.01732017E-05  7.92874594E-05  8.44211650E-05  8.87130675E-05  9.02398644E-05  5.59391499E-05  6.93981765E-05  6.76642845E-05  8.07397178E-05  8.40043660E-05  8.42646856E-05  8.92882786E-05  8.70214833E-05  8.12739708E-05  7.95568755E-05  8.11748530E-05
    7.80968477E-05  8.56440717E-05  6.84808828E-05  7.85068833E-05  6.32887589E-05  7.65902500E-05  5.94294007E-05  5.86834114E-05  5.59822153E-05  5.58951993E-05  5.45211364E-05  3.13677151E-05  1.19472719E-04  5.58157656E-05  6.36871889E-05  6.53981625E-05  6.79661130E-05  6.56831546E-05  7.31223183E-05  7.67544411E-05
    9.08789379E-05  8.46733713E-05  9.37318428E-05  1.27728327E-04  3.52257190E-04  1.42780431E-04  3.21784054E-04  1.15612660E-04  3.83730436E-05  1.32317781E-04  1.79599058E-05  1.84892411E-05  1.49177330E-07  4.59232730E-05  4.57939445E-05  4.38931456E-04  3.92323570E-05  3.08785948E-05  3.20577299E-05  1.04654219E-04
    1.11865241E-04  5.63999007E-05  4.44906709E-05  8.26880996E-05  6.39497082E-05  1.04178332E-04  9.53298576E-05  5.79566546E-06  1.21135453E-04  5.08757493E-05  4.90416658E-05  5.47167501E-05  5.31119578E-05  6.72455404E-05  7.27504265E-05  7.80323004E-05  8.43860104E-05  5.89254222E-05  8.66144782E-05  9.08545868E-05
    9.00514329E-05  9.34327273E-05  7.84372451E-05  8.90444169E-05  8.98648710E-05  9.66018844E-05  1.07697975E-04  1.09539622E-04  1.15292586E-04  1.17266283E-04  9.55092652E-05  1.02432096E-04  9.77682296E-05  1.04766955E-04  1.19300645E-04  1.21224894E-04  1.20901895E-04  1.22808054E-04  7.74018817E-05  9.01624831E-05
    9.89921641E-05  8.75006788E-05  9.63454770E-05  1.02573384E-04  1.02913681E-04  9.52233250E-05  9.49413809E-05  8.34337610E-05  8.82195016E-05  1.08039817E-04  9.75796600E-05  1.15530786E-04  1.01807957E-04  8.83452599E-05  8.18011296E-05  9.11991061E-05  8.32252513E-05  1.19184732E-04  1.01693491E-04  1.20641551E-04
    1.01647650E-04  9.54102664E-05  8.71374301E-05  9.70614797E-05  8.86731953E-05  7.51211689E-05  6.20225307E-05  7.45328369E-05  6.30496401E-05  5.71898247E-05  5.39562499E-05  5.76802686E-05  5.37292349E-05  7.48098675E-05  5.89039655E-05  7.49208117E-05  5.72265218E-05  5.47579448E-05  5.24294307E-05  5.35636639E-05
    5.19078554E-05  1.01014818E-04  8.97475549E-05  9.31407458E-05  8.49818513E-05  9.12437101E-05  8.65733175E-05  8.88224635E-05  8.57234721E-05  7.97102471E-05  7.41261026E-05  7.43273928E-05  6.97786349E-05  7.59172118E-05  7.36832849E-05  7.07367355E-05  6.88397919E-05  7.46149209E-05  5.98161565E-05  7.44924189E-05
    6.08452880E-05  5.42149709E-05  5.03711067E-05  5.44356862E-05  4.97555958E-05  6.63882676E-05  5.50941431E-05  6.31427480E-05  5.27895396E-05  5.23827120E-05  5.10030394E-05  5.14641622E-05  5.14999902E-05  9.85536946E-05  6.87917808E-05  9.92767575E-05  6.81346162E-05  6.76293800E-05  6.13473703E-05  6.01575506E-05
    5.75632155E-05  5.66317729E-05  5.81432703E-05  5.53675269E-05  5.88681442E-05  5.54897351E-05  5.71562672E-05  5.65262511E-05  5.23237729E-05  4.93299187E-05  5.25970667E-05  4.84604907E-05  5.80397947E-05  5.87026293E-05  5.45829763E-05  6.11441797E-05  5.70300677E-05  5.89214470E-05  5.94463678E-05  5.78480611E-05
    5.73355986E-05  5.73219499E-05  6.01219771E-05  6.65476969E-05  5.88789506E-05  6.73398461E-05  7.36727428E-05  8.44510413E-05  7.62673900E-05  8.70778233E-05  5.58469320E-05  6.60920369E-05  5.46326803E-05  6.55494470E-05  7.81760704E-05  9.66021075E-05  7.89004283E-05  1.00416359E-04  9.60261231E-05  1.01347967E-04
    1.00247557E-04  1.05880718E-04  9.71325691E-05  1.07415924E-04  1.07982631E-04  1.10271119E-04  1.08699352E-04  1.04191811E-04  9.78212569E-05  1.02365028E-04  9.79292417E-05  5.36593288E-05  6.24264063E-05  5.32695245E-05  6.11467707E-05  7.36120517E-05  9.49121830E-05  7.14876319E-05  9.27078901E-05  5.05339380E-05
    5.68949955E-05  4.94384003E-05  5.51795117E-05  6.50156240E-05  8.14564427E-05  6.24139976E-05  7.69505030E-05  1.06434235E-04  1.06864647E-04  1.04870606E-04  1.06119110E-04  1.02476709E-04  8.73144535E-05  1.02521434E-04  8.30571315E-05  9.33802611E-05  9.31197300E-05  8.87699739E-05  8.78835962E-05  8.76208043E-05
    7.44553068E-05  8.16534513E-05  7.10094470E-05  1.10009885E-04  1.55986059E-04  9.92569178E-05  1.02285505E-04  9.73368170E-05  9.84421751E-05  1.33314316E-04  2.28720386E-04  9.22836318E-05  1.13258606E-04  8.00150849E-05  1.04102797E-04  1.62619647E-04  4.81992105E-05  5.22026017E-05  4.77029444E-05  5.09880583E-05
    5.74248235E-05  6.88485732E-05  5.54209784E-05  6.56039410E-05  4.86057768E-05  5.06502390E-05  4.89673399E-05  5.05029991E-05  5.31817510E-05  5.82312480E-05  5.22520295E-05  5.52786580E-05  7.64487660E-05  7.48030410E-05  7.14951301E-05  6.95492834E-05  7.08086154E-05  5.87352565E-05  5.23375990E-05  4.72938314E-05
    4.51466922E-05  4.66236309E-05  4.29368641E-05  4.91638008E-05  4.81424924E-05  3.67470735E-05  3.08164047E-05  7.12013497E-05  8.88890656E-05  2.96689474E-05  1.84010027E-05  1.21765130E-04  2.91754647E-05  5.71727808E-05  2.98439079E-05  3.47060929E-05  6.01304931E-05  1.06914280E-06  3.42170312E-06  5.15388383E-04
    9.24582578E-05  3.95245263E-06  9.15855279E-07  4.93623821E-05  9.59482820E-05  7.76762901E-05  5.05068429E-05  9.60896189E-05  5.88998493E-05  1.91711604E-04  6.01681240E-05  2.81029022E-05  1.38864401E-05  2.11156982E-05  8.12932952E-06  5.76984992E-06  2.14542539E-05  1.31774590E-05  3.89387205E-05  9.02812062E-05
    5.40600481E-05  2.32272900E-05  3.93763564E-06  1.01347449E-04  3.14094487E-04  3.05303584E-05  3.64734566E-05  2.41989181E-04  2.01749019E-04  2.74607545E-05  1.73635243E-04  7.73589089E-05  2.51711729E-05  4.14934075E-05  5.54573204E-05  4.22343365E-05  1.69478694E-04  7.45874792E-05  2.93481066E-05  8.84987365E-05
    2.76895828E-04  3.80938041E-05  4.24386565E-04  3.35119109E-05  1.69994506E-05  3.17014968E-07  9.18827652E-05       0.00332499       0.00186246       0.00529101  2.82235442E-04  8.04387915E-04  1.06144788E-06  2.64953254E-06  5.67613574E-07  3.60461268E-05  4.06595942E-07  7.30095134E-04       0.00151932       0.00122610
         0.00152678       0.00157101  7.38527925E-05  1.91533744E-05  3.75473896E-05  2.08728547E-04  3.49613378E-05  2.72810611E-04  4.68860007E-04  3.61692794E-07  1.63522444E-07       0.00273816       0.00124541       0.00111672  5.15541454E-04  3.42454048E-05  2.29085934E-05  5.10382264E-05  7.58852879E-06  6.98837484E-05
         0.00336559  4.29978639E-05  4.99693683E-04  9.47959767E-05  1.14661216E-06  6.74687686E-05  2.07427961E-04  1.67057450E-06  1.33115778E-06       0.00244500       0.00514650       0.00382006  8.50016243E-04  7.21576480E-04  9.53487504E-04  2.19064915E-04  1.18595804E-04  3.15276736E-05  1.02902576E-04  2.34357250E-05
    1.80264038E-05  1.70024954E-07  2.47075525E-05  2.74576366E-07  2.45828888E-05  1.85787316E-05  2.28144620E-05  6.81611768E-06  1.18471612E-05  3.02061407E-06  2.87359437E-07  5.15840468E-05  8.31484406E-05  1.10225574E-04  8.99305135E-04  4.30737579E-04  8.41001409E-04       0.00396458       0.00149832  1.88138189E-04
         0.00160738  5.58393637E-04  4.40889407E-04       0.00670108       0.00304393       0.00588446       0.00418957  3.83154669E-07  3.27273161E-05  2.09314952E-07  3.89221940E-05  1.57793806E-04  2.20256619E-04  2.95802358E-04  9.78024465E-04  9.06124632E-04  8.02409532E-05       0.00229684       0.00152405       0.00296757
         0.00174706  3.99911404E-04  3.21903329E-04  6.64522343E-04  7.21790071E-04  4.85132416E-04       0.00126233       0.00240557       0.00239028       0.00184444       0.00200041       0.00238306       0.00127543       0.00154297       0.00132333  7.78374700E-04  4.72995636E-04       0.00215222       0.00203781       0.00124200
         0.00172870       0.00194967       0.00164457       0.00318277       0.00105055  3.26605925E-04  3.65820625E-04  3.32866115E-05  1.96475204E-06  9.77380194E-06  3.02483699E-06  2.81300234E-04  2.04056580E-04  7.38539178E-04       0.00187101  1.32779608E-07  3.93555464E-07  2.38309627E-07  8.18839279E-04       0.00249993
    4.35148775E-04  2.61963587E-04  1.48448521E-05  2.84317668E-05       0.00186454       0.00184437       0.00110753       0.00155629       0.00120428       0.00114191       0.00123550       0.00150874  4.86100566E-04  7.35719329E-04  9.18146288E-04       0.00140483       0.00150977       0.00161141       0.00169380       0.00217192
         0.00173224       0.00155311       0.00105760       0.00134451  5.93438293E-04       0.00188953       0.00318883       0.00422613       0.00563898       0.00153026  5.40159029E-04       0.00274048       0.00118555  1.23038190E-04       0.00157704  1.51365327E-05  3.10285671E-04       0.00658471       0.00612178       0.00614541
         0.00488642       0.00475089       0.00294646       0.00469726       0.00439200       0.00354987       0.00370109  8.74376523E-04  7.19623973E-04  5.08709798E-04  4.05761973E-04  8.41203753E-04       0.00146522  4.71812770E-04  8.54342786E-04  3.89512119E-04  2.24348017E-04  6.39916533E-04  3.23753678E-04  2.68659657E-04
    6.52606110E-04  3.58701517E-04  6.29308490E-04       0.00205322       0.00287008       0.00190367       0.00449661       0.00126296       0.00260446       0.00264245       0.00136031  8.88292698E-04       0.00327303       0.00194892  8.51997746E-04       0.00111177       0.00154210       0.00214851       0.00483750       0.00315193
         0.00540694       0.00469925       0.00220012       0.00307558       0.00809486       0.00269810       0.00464916  6.96291555E-05  5.29208147E-07       0.00205492  2.59882375E-04  2.57504558E-06  3.52292127E-07  2.34255461E-05  3.01330852E-04  9.25699754E-04       0.00474088       0.00268173       0.00266024  5.44605556E-05
    1.03181788E-05       0.00106784  8.95503463E-06  6.09793121E-06       0.00373251       0.00132268       0.00113402  5.61340529E-04  9.66751037E-04  3.76579787E-04  5.05743984E-04       0.00213462  1.67161299E-05  4.05193731E-06  2.88306361E-07  3.17961243E-07       0.00122522       0.00240169       0.00354185       0.00130119
    9.06552313E-04  1.54576664E-04  2.72096814E-05  2.08431304E-05  1.11960685E-05  1.89095455E-05  1.08589583E-04  1.89436288E-04       0.01054283       0.00166202       0.00177226  7.13970783E-04  2.17810787E-04  6.28760608E-04  9.97290545E-07  2.62966129E-05  1.19217945E-07  6.26611700E-06       0.00232935       0.00107591
         0.00154771       0.00157664       0.00650435       0.00613302  9.32769070E-04  2.41773825E-05  7.90421110E-06  2.59095596E-04  8.28423560E-06  3.04843972E-09       0.00156842  3.48976844E-04       0.00158786       0.00235006       0.00283359       0.00509877  4.21737791E-04  3.72463546E-05  5.60544344E-05  2.89316965E-04
         0.00161124       0.00191117  1.48146304E-04  1.75767821E-04       0.00199273       0.00133875       0.00413480       0.00273817  7.44105536E-05  3.24362019E-05  1.28473741E-04  2.50996613E-04  6.12239663E-04  6.03980366E-04  1.30526914E-06  1.31889695E-04       0.00474833       0.00255080       0.00125962  8.55186508E-04
         0.00105915  1.19340461E-04  2.03998596E-04  1.97523860E-04  1.17341278E-10  1.95250929E-04  1.13311280E-04  1.76733875E-04  1.64635707E-04  6.91844145E-05  1.02412446E-06  3.29661859E-04  3.33980502E-05  1.03114248E-10  5.66852067E-05  1.00129692E-10  1.13705363E-10  2.84155746E-05  6.57255536E-06  6.61985150E-05
    4.44529804E-04  4.44668754E-04  8.27790272E-04  2.63123121E-04  1.33483289E-04  7.01197425E-04  8.31932372E-04  3.00140799E-04  1.47108945E-04  2.54918449E-05  8.51944503E-04  4.59728229E-04       0.00245577  5.06122157E-04  6.96585358E-05  1.21901429E-04  2.62662635E-04  1.31611235E-04  7.14862340E-04  8.16132629E-04
    1.33429924E-04  9.64855895E-04  9.47812282E-05       0.00151160       0.00115858  5.18982076E-04       0.00214238  9.50335686E-04       0.00324154       0.00824086       0.00554298       0.01746117       0.00629676  5.36119174E-04  6.08468059E-04  3.41113512E-04  2.44628541E-04       0.00165721       0.00232942  2.52697013E-04
    9.08326841E-04  8.01911372E-04  3.44371612E-04       0.00169893  6.70549760E-04  4.40123451E-04  5.35842106E-04  4.94297518E-05  6.88621616E-04       0.00159974  1.67694829E-05  2.94257193E-07       0.00150893  3.06634026E-04       0.00131464       0.00260531       0.00141943  4.60966455E-04       0.00108159       0.00465637
         0.00822040       0.00365458       0.01076043  9.27913462E-04  2.16712678E-04       0.00139728  6.82848249E-04       0.00635241  1.56537517E-04  1.29371709E-06  5.87004601E-04       0.00249251       0.00168133       0.00164983       0.00105190  3.95658187E-04       0.00144275       0.00353941       0.00136055  8.77672534E-04
    1.18750207E-04  1.07060995E-04  1.11418085E-05  6.72653872E-04       0.01036228       0.00114471       0.00237071  7.02910301E-04  4.91244952E-05  8.86929279E-05  2.36176296E-08  6.57795415E-04       0.00291117       0.00641737  1.00000001E-10  1.00000001E-10  1.00000001E-10  1.37319444E-10  1.16770979E-10  1.33038539E-10
    3.55566206E-10  1.00000001E-10  1.00000001E-10  1.00295620E-10  1.00000001E-10  1.00000001E-10  1.19910795E-10  1.00000001E-10  1.00000001E-10  1.37163687E-10  1.02191976E-10  1.00000001E-10  1.00295746E-10  1.00000001E-10  1.00000001E-10  1.00000001E-10  1.00065220E-10  2.43218508E-10  1.00000001E-10  1.00000001E-10
    1.00000001E-10  1.00000001E-10  1.00000001E-10  1.00000001E-10  1.00000001E-10  1.00000001E-10  1.00000001E-10  1.00000001E-10  1.42353602E-10  2.88700000E-10  1.00000001E-10  1.06765883E-10  1.04819082E-10  1.00000001E-10  1.00074365E-10  1.31282363E-10  1.00000001E-10  1.00000001E-10  1.00000001E-10  1.00000001E-10
    1.00000001E-10  1.00000001E-10  1.00000001E-10  1.00000001E-10  1.00000001E-10  1.00000001E-10  1.00383698E-10  1.02571929E-10  1.00000001E-10  1.00000001E-10  1.00000001E-10  1.00000001E-10  1.00000001E-10  1.00000001E-10  1.00000001E-10  1.00000001E-10  1.00000001E-10  1.00000001E-10  1.00000001E-10  1.00000001E-10
    1.00000001E-10  1.00000001E-10  1.00000001E-10  1.00000001E-10  1.00361125E-10  1.00000001E-10  1.00000001E-10  1.00000001E-10  1.00000001E-10  1.03936388E-10  1.18607792E-10  1.00000001E-10  1.09985525E-10  1.00000001E-10  1.00000001E-10  1.00000001E-10  1.00000001E-10  1.00000001E-10  1.00000001E-10  1.00000001E-10
    1.00000001E-10  1.04424606E-10  8.72457637E-08  1.05208069E-10  1.09917462E-10  1.00000001E-10  1.00000001E-10  1.00000001E-10  1.00000001E-10  1.00000001E-10  1.00000001E-10  1.00000001E-10  1.00000001E-10  1.00000001E-10  1.02882856E-10  1.02585065E-10  1.00000001E-10  1.00000001E-10  1.00000001E-10  1.00000001E-10
    1.00000001E-10  1.03066464E-10
  k22
    INTERNAL  FACTOR  1.0
    3.66512965E-06  5.58527964E-06  6.24071483E-05  2.49537385E-06  2.56125728E-05  3.05452947E-04  8.23989983E-05  4.78117924E-05  7.46478550E-05  1.28079634E-05  1.51392669E-05  1.01033131E-06  5.51356557E-05  9.66613878E-06  2.86391248E-05  7.46769151E-07  7.81205699E-08  5.85093045E-05  7.12275072E-05  3.42299767E-05
    2.78252645E-05  9.08358482E-08  2.00781100E-05  1.80882248E-04  1.48781057E-05  3.27323377E-06  4.29359308E-05  4.21744964E-06  1.48697319E-07  9.51744267E-05  1.33671325E-04  5.40490011E-05  1.13382666E-04  3.46905371E-05  2.89328709E-05  3.58197690E-05  3.01101558E-06  8.24411370E-06  7.15625503E-05  6.00269225E-05
    2.56002126E-05  1.00029132E-04  5.38439620E-05  2.42479314E-05  1.29970850E-04  2.20364741E-05  4.14015787E-05  3.91414548E-05  8.51403774E-05  3.60576075E-05  9.84647103E-05  1.06789436E-04  1.40509075E-04  1.23927586E-04  1.54345259E-04  1.27668368E-04  1.63343077E-04  1.29839876E-04  4.53548775E-05  7.46174929E-07
    4.88607653E-05  1.60739930E-05  5.24343164E-05  1.77421897E-05  1.11384247E-06  1.54663710E-04  1.68632979E-04  1.34782910E-04  1.22377897E-04  1.33383892E-04  1.24912986E-04  1.77168990E-04  1.08631421E-04  1.63268339E-04  1.56669444E-04  7.97641237E-05  5.50388816E-05  8.36766655E-05  8.04209372E-05  2.38362179E-05
    9.24970255E-05  8.63346397E-05  9.66063249E-05  8.90047880E-05  7.94276496E-05  6.75979752E-05  8.08930313E-05  6.77727732E-05  1.60386695E-05  6.79470716E-06  3.35197815E-05  1.70001599E-05  5.40056806E-05  3.41555074E-05  8.50943163E-06  1.15138308E-05  8.16084892E-06  2.22639795E-05  9.01682681E-05  7.68992575E-05
    6.41548088E-05  7.54182721E-05  6.28189069E-05  8.75980080E-05  6.75879174E-05  5.03274734E-05  3.61946613E-05  4.89957608E-05  4.08241596E-05  1.31728846E-05  2.50607604E-05  3.33986232E-05  2.65033923E-05  4.77480857E-05  4.06216378E-05  4.72734758E-05  4.05467131E-05  3.35740594E-05  2.77191064E-05  3.36556427E-05
    4.62321004E-05  6.64614638E-07  3.60905733E-06  1.14221445E-06  6.78723017E-06  1.41583771E-05  5.19230102E-07  3.81592263E-06  8.33730881E-06  7.05300025E-06  1.91926481E-05  1.60407780E-05  4.17654841E-06  8.81261272E-06  2.24785551E-05  1.02101030E-05  3.57160049E-05  2.12514428E-05  1.78005324E-05  2.22168767E-05
    1.86374077E-05  1.54112662E-05  1.64664279E-05  1.64474056E-05  2.92107327E-05  2.38973753E-05  2.10492359E-05  4.16962645E-05  3.82804853E-05  2.07988449E-05  3.74335610E-05  4.03106808E-05  4.38086305E-05  2.52218991E-05  3.49529815E-05  3.49889673E-05  3.76127530E-05  4.83067246E-05  5.87029712E-05  6.69204715E-05
    6.98912766E-05  4.46268466E-05  4.98735117E-05  5.32739881E-05  7.01732017E-05  8.11092662E-05  8.32974315E-05  8.92201572E-05  9.02460960E-05  5.50768608E-05  6.87042377E-05  6.75900072E-05  8.09842490E-05  8.30950966E-05  8.40245442E-05  8.93006984E-05  8.70214833E-05  8.13056519E-05  7.95089338E-05  8.13586849E-05
    7.81330257E-05  8.53760844E-05  6.88054519E-05  7.83860491E-05  6.32662035E-05  7.65902500E-05  6.00494798E-05  5.84830739E-05  5.59228937E-05  5.59435033E-05  5.45666090E-05  3.10957735E-05  1.37101056E-04  5.45522911E-05  6.30915516E-05  6.54119078E-05  6.77611406E-05  6.56132863E-05  7.36416068E-05  7.68850300E-05
    9.09284731E-05  8.48627577E-05  9.37371602E-05  1.51160537E-04  3.57815384E-04  1.58928184E-04  3.20908896E-04  1.16038422E-04  4.17277307E-05  1.59275379E-04  2.35922835E-05  2.90884810E-05  2.77489377E-06  1.01129531E-05  8.48041748E-05  5.79788180E-04  4.50950478E-05  2.55072552E-05  2.90495535E-06  8.82717520E-05
    8.16736592E-05  4.47444503E-05  4.36503544E-05  8.38276833E-05  6.37762135E-05  1.03547053E-04  8.96930920E-05  2.62055487E-05  1.23371005E-04  5.03890969E-05  4.85405968E-05  5.50257600E-05  5.57228822E-05  5.51493984E-05  6.01074082E-05  7.80323004E-05  8.46421668E-05  5.91559262E-05  8.62523112E-05  9.08085508E-05
    9.00514329E-05  9.35449945E-05  7.07483428E-05  8.71873384E-05  9.01268459E-05  9.66018844E-05  1.06614288E-04  1.08017714E-04  1.15653627E-04  1.17273389E-04  9.56436079E-05  1.02293034E-04  9.80491688E-05  1.04766955E-04  1.19509178E-04  1.21161665E-04  1.21139831E-04  1.22815859E-04  7.26611108E-05  9.01604416E-05
    9.87872377E-05  8.75699578E-05  9.60356104E-05  1.01420093E-04  1.01486355E-04  9.52743656E-05  9.49683695E-05  8.28580145E-05  8.70871672E-05  1.06691165E-04  9.70888841E-05  1.15728571E-04  1.01807957E-04  8.84936927E-05  8.19614593E-05  9.17381148E-05  8.36571364E-05  1.19433445E-04  1.01691864E-04  1.21015119E-04
    1.01647650E-04  9.55567017E-05  8.78626661E-05  9.71955891E-05  8.96809839E-05  7.50847088E-05  6.23277594E-05  7.45328369E-05  6.33435206E-05  5.73442749E-05  5.39798976E-05  5.79575947E-05  5.37505609E-05  7.47985549E-05  5.93138152E-05  7.49208117E-05  5.79011145E-05  5.47593798E-05  5.24200590E-05  5.36172596E-05
    5.19128002E-05  9.96982694E-05  8.90850816E-05  9.32219914E-05  8.49818513E-05  9.10883497E-05  8.72950100E-05  8.89095285E-05  8.63835805E-05  7.88984888E-05  7.35396371E-05  7.43760970E-05  6.97786349E-05  7.51209160E-05  7.32109045E-05  7.07488324E-05  6.90378822E-05  7.46076259E-05  6.02474429E-05  7.44924189E-05
    6.12544280E-05  5.44752358E-05  5.03463963E-05  5.48589115E-05  4.97637222E-05  6.59784109E-05  5.51592963E-05  6.31427480E-05  5.30661570E-05  5.23598582E-05  5.09920383E-05  5.14692435E-05  5.15035099E-05  1.00569593E-04  6.86221441E-05  9.94541406E-05  6.86061103E-05  6.71806826E-05  6.08369392E-05  5.96940874E-05
    5.76148848E-05  5.66424189E-05  5.81404688E-05  5.52437676E-05  5.87466921E-05  5.54664526E-05  5.71562672E-05  5.65378224E-05  5.24397235E-05  4.92799112E-05  5.28981574E-05  4.84648952E-05  5.80048190E-05  5.86495853E-05  5.42917257E-05  6.13601792E-05  5.70768528E-05  5.87829114E-05  5.85891985E-05  6.03578585E-05
    5.69731952E-05  6.10758454E-05  6.00569742E-05  6.69462728E-05  5.88789506E-05  6.81789048E-05  7.37817190E-05  8.42351865E-05  7.66175139E-05  8.70778233E-05  5.57687452E-05  6.73791979E-05  5.46326803E-05  6.70847614E-05  7.90226921E-05  9.61989916E-05  8.00685562E-05  1.00416359E-04  9.59228437E-05  1.00898278E-04
    1.00773053E-04  1.05981762E-04  9.69804050E-05  1.07546407E-04  1.08043978E-04  1.10546460E-04  1.08957277E-04  1.04102157E-04  9.78327995E-05  1.02365028E-04  9.79347799E-05  5.36354127E-05  6.34005208E-05  5.32695245E-05  6.20510704E-05  7.46580774E-05  9.47213045E-05  7.27085852E-05  9.27078901E-05  5.04734760E-05
    5.73358093E-05  4.94384003E-05  5.56529279E-05  6.55692347E-05  8.08354064E-05  6.31115682E-05  7.69505030E-05  1.06759778E-04  1.06965072E-04  1.05326227E-04  1.06200627E-04  1.02468884E-04  8.69004111E-05  1.02521434E-04  8.31537112E-05  9.33117785E-05  9.27004780E-05  8.92505082E-05  8.82238486E-05  8.66887198E-05
    7.41308323E-05  8.16534513E-05  7.10460686E-05  1.10963608E-04  1.60002500E-04  9.91991446E-05  1.02086575E-04  9.74077109E-05  9.85839569E-05  1.35017432E-04  2.29101377E-04  9.17927771E-05  1.14573164E-04  8.01911769E-05  1.05147026E-04  1.64118634E-04  4.81816992E-05  5.23264191E-05  4.77029444E-05  5.11383029E-05
    5.77003484E-05  6.84765701E-05  5.58265853E-05  6.56039410E-05  4.85203029E-05  5.06665744E-05  4.89673399E-05  5.05502610E-05  5.32257082E-05  5.78637490E-05  5.23038948E-05  5.52786580E-05  7.59267229E-05  7.42479201E-05  7.16517791E-05  6.98268462E-05  7.03254645E-05  5.09549217E-05  4.50652462E-05  4.46364068E-05
    4.27102774E-05  4.66236309E-05  4.31257384E-05  4.45595180E-05  4.79870032E-05  3.45986667E-05  2.86833053E-05  7.07091603E-05  6.44443161E-05  2.97286619E-05  1.37676320E-05  1.29476046E-04  3.07196101E-05  5.13435878E-05  2.78848050E-05  2.70604061E-05  7.08907626E-06  1.43978188E-07  1.09743278E-05  5.48697918E-04
    1.76418050E-04  6.62910088E-06  4.57843874E-07  9.67469218E-05  9.46760271E-05  7.91146139E-05  4.90137122E-05  9.53280690E-05  6.07176391E-05  1.79166536E-04  7.18849657E-05  2.66959655E-05  1.07583884E-05  2.70150653E-05  5.56639169E-06  4.23673152E-06  2.15923240E-05  9.74933695E-06  5.91115570E-05  9.75378531E-05
    3.79993462E-05  1.90740350E-05  3.65963603E-06  3.27026417E-04  7.98650462E-04  1.89995521E-05  2.66394761E-05  3.18502465E-04  3.23307064E-04  2.52458909E-05  1.12104078E-04  6.64138632E-05  2.74546880E-05  5.80553224E-05  5.78580159E-05  5.05427487E-05  2.33466128E-04  8.73356981E-05  3.52801882E-05  1.58051193E-04
    4.69696863E-04  3.54957027E-05  3.98881235E-04  5.41248126E-05  1.61318090E-05  3.80931560E-07  4.53614325E-04       0.00277397       0.00300002       0.00695428       0.00127951  2.23557939E-04  1.17271277E-05  7.48125464E-07  7.45480546E-07  8.96236640E-08  5.57341383E-07  4.13271963E-04       0.00215625       0.00126367
         0.00209072       0.00129200       0.00113148  1.19211193E-05  5.28221502E-04  2.81238979E-04  1.13662980E-05  4.00403234E-04  4.79390986E-06  5.33110262E-07  7.54317542E-04       0.00374474       0.00136426  4.79338091E-04  3.96688930E-04  3.71837566E-05  1.57833650E-05  1.00601594E-04  1.25906547E-06  5.88039277E-05
         0.00709354  7.47956674E-05       0.00155184  5.77959185E-05  2.54140513E-06  5.00128375E-05  1.88765859E-04  2.49660151E-04  1.84605348E-04       0.00319800       0.00151953       0.00109416  9.89986543E-04  8.02576070E-04  7.14057383E-04  3.10746246E-05       0.00192190  3.62746960E-05  4.05871885E-04  2.56454580E-05
    1.70148123E-05  1.39924493E-06  2.22301823E-05  6.28291024E-06  1.22719325E-05  1.50097784E-05  2.66661752E-05  1.56695360E-06  2.17144173E-05  2.63843611E-06  2.14701156E-05  4.52818401E-05  7.66031655E-05  1.21415093E-04  1.94345288E-04       0.00339727       0.00150269       0.00414446       0.00206327  2.08488622E-04
         0.00379487  5.10375635E-04       0.00227552       0.00708371       0.00343646       0.00602922       0.00438748  8.53420024E-06  4.45274135E-05  7.53442241E-06  5.69042631E-05  8.58999044E-04  1.33499133E-04  1.42049715E-04  9.11261117E-04  9.16515815E-04  1.03577513E-04       0.00214315       0.00200174       0.00293313
         0.00213028  5.39186237E-04  2.98618859E-04  7.72187042E-04  8.48201826E-04  1.69946008E-04  9.56237848E-04       0.00173771       0.00240180       0.00151971       0.00227537       0.00257921       0.00150767       0.00180181       0.00141638       0.00158584  1.68279958E-04       0.00204414       0.00203413       0.00114906
         0.00172716       0.00159226       0.00151977       0.00324567       0.00118129  2.73684663E-04  2.33005130E-04  1.77688313E-04  4.87327171E-06  7.29687839E-06  2.45136571E-06  4.79297061E-04  4.29368273E-04       0.00100301  5.40748916E-04  5.23727380E-05  3.30297718E-08  3.11006856E-05       0.00104473       0.00245183
    3.24743124E-04  3.05065063E-04  1.10610185E-05  1.18179241E-05       0.00158960       0.00186658  9.92783455E-04       0.00140488       0.00114695       0.00105465  7.04941280E-04       0.00136481  5.95333579E-04  6.34570774E-04       0.00113827       0.00161070       0.00146708       0.00129286       0.00147513       0.00187177
         0.00175236       0.00140747       0.00106100       0.00119535  7.28869438E-04       0.00217127       0.00297542       0.00362140       0.00623741       0.00167899  6.44144856E-04       0.00259776  8.70380345E-04  2.43321328E-04       0.00231680  8.37199271E-06       0.00152527       0.00596934       0.00492132       0.00582649
         0.00543926       0.00421097       0.00325799       0.00471866       0.00467362       0.00391545       0.00351688  8.23990883E-04  7.07473372E-04  4.82355668E-04  3.45883232E-04  7.36738864E-04       0.00141343  4.18356648E-04  8.79893324E-04  3.82910377E-04  2.30311838E-04  5.94293968E-04  3.58454148E-04  2.82740417E-04
    7.45840230E-04  3.50339533E-04  7.13586221E-04       0.00187440       0.00258081       0.00215633       0.00472961       0.00219126       0.00403878       0.00370922       0.00134511  6.28398584E-04       0.00318762       0.00180117  5.71075332E-04  8.70936485E-04       0.00155310       0.00218189       0.00496765       0.00255682
         0.00525430       0.00468607       0.00222194       0.00385650       0.00894680       0.00243797       0.00272781  1.12413758E-04  4.28188442E-08       0.00168274  3.42464355E-05  6.72135517E-06  2.78169356E-07  4.90007450E-07  3.11653964E-04       0.00119241       0.00558932       0.00339855       0.00183698  5.21641741E-04