# File generated by Flopy version 3.9.3 on 07/23/2025 at 15:50:50.
BEGIN options
END options

BEGIN griddata
  strt
    CONSTANT       1.00000000
END griddata

