# File generated by Flopy version 3.9.1 on 01/21/2025 at 11:18:42.
BEGIN options
END options

BEGIN packages
  OC6  test.oc  oc
  IC6  test.ic  ic
  DIS6  test.dis  dis
  NPF6  test.npf  npf
  CHD6  test.chd  chd_0
END packages

