# File generated by Flopy version 3.9.3 on 09/16/2025 at 10:11:38.
BEGIN options
  SAVE_FLOWS
END options

BEGIN dimensions
  MAXBOUND  128
END dimensions

BEGIN period  1
  1 577 3.00000000E-01
  1 553 3.00000000E-01
  1 529 3.00000000E-01
  1 505 3.00000000E-01
  1 481 3.00000000E-01
  1 430 3.00000000E-01
  1 319 3.00000000E-01
  1 202 3.00000000E-01
  1 169 3.00000000E-01
  1 145 3.00000000E-01
  1 121 3.00000000E-01
  1 97 3.00000000E-01
  1 73 3.00000000E-01
  1 49 3.00000000E-01
  1 25 3.00000000E-01
  1 1 3.00000000E-01
  2 577 3.00000000E-01
  2 553 3.00000000E-01
  2 529 3.00000000E-01
  2 505 3.00000000E-01
  2 481 3.00000000E-01
  2 430 3.00000000E-01
  2 319 3.00000000E-01
  2 202 3.00000000E-01
  2 169 3.00000000E-01
  2 145 3.00000000E-01
  2 121 3.00000000E-01
  2 97 3.00000000E-01
  2 73 3.00000000E-01
  2 49 3.00000000E-01
  2 25 3.00000000E-01
  2 1 3.00000000E-01
  3 577 3.00000000E-01
  3 553 3.00000000E-01
  3 529 3.00000000E-01
  3 505 3.00000000E-01
  3 481 3.00000000E-01
  3 430 3.00000000E-01
  3 319 3.00000000E-01
  3 202 3.00000000E-01
  3 169 3.00000000E-01
  3 145 3.00000000E-01
  3 121 3.00000000E-01
  3 97 3.00000000E-01
  3 73 3.00000000E-01
  3 49 3.00000000E-01
  3 25 3.00000000E-01
  3 1 3.00000000E-01
  4 577 3.00000000E-01
  4 553 3.00000000E-01
  4 529 3.00000000E-01
  4 505 3.00000000E-01
  4 481 3.00000000E-01
  4 430 3.00000000E-01
  4 319 3.00000000E-01
  4 202 3.00000000E-01
  4 169 3.00000000E-01
  4 145 3.00000000E-01
  4 121 3.00000000E-01
  4 97 3.00000000E-01
  4 73 3.00000000E-01
  4 49 3.00000000E-01
  4 25 3.00000000E-01
  4 1 3.00000000E-01
  1 600 0.00000000E+00
  1 576 0.00000000E+00
  1 552 0.00000000E+00
  1 528 0.00000000E+00
  1 504 0.00000000E+00
  1 480 0.00000000E+00
  1 429 0.00000000E+00
  1 318 0.00000000E+00
  1 201 0.00000000E+00
  1 168 0.00000000E+00
  1 144 0.00000000E+00
  1 120 0.00000000E+00
  1 96 0.00000000E+00
  1 72 0.00000000E+00
  1 48 0.00000000E+00
  1 24 0.00000000E+00
  2 600 0.00000000E+00
  2 576 0.00000000E+00
  2 552 0.00000000E+00
  2 528 0.00000000E+00
  2 504 0.00000000E+00
  2 480 0.00000000E+00
  2 429 0.00000000E+00
  2 318 0.00000000E+00
  2 201 0.00000000E+00
  2 168 0.00000000E+00
  2 144 0.00000000E+00
  2 120 0.00000000E+00
  2 96 0.00000000E+00
  2 72 0.00000000E+00
  2 48 0.00000000E+00
  2 24 0.00000000E+00
  3 600 0.00000000E+00
  3 576 0.00000000E+00
  3 552 0.00000000E+00
  3 528 0.00000000E+00
  3 504 0.00000000E+00
  3 480 0.00000000E+00
  3 429 0.00000000E+00
  3 318 0.00000000E+00
  3 201 0.00000000E+00
  3 168 0.00000000E+00
  3 144 0.00000000E+00
  3 120 0.00000000E+00
  3 96 0.00000000E+00
  3 72 0.00000000E+00
  3 48 0.00000000E+00
  3 24 0.00000000E+00
  4 600 0.00000000E+00
  4 576 0.00000000E+00
  4 552 0.00000000E+00
  4 528 0.00000000E+00
  4 504 0.00000000E+00
  4 480 0.00000000E+00
  4 429 0.00000000E+00
  4 318 0.00000000E+00
  4 201 0.00000000E+00
  4 168 0.00000000E+00
  4 144 0.00000000E+00
  4 120 0.00000000E+00
  4 96 0.00000000E+00
  4 72 0.00000000E+00
  4 48 0.00000000E+00
  4 24 0.00000000E+00
END period  1

