# File generated by Flopy version 3.9.2 on 02/26/2025 at 15:28:45.
BEGIN options
END options

BEGIN griddata
  strt
    CONSTANT       1.00000000
END griddata

