MODPATH_TIMESERIES_FILE         7         2
    2   0.0000000000E+00  0.0000000000E+00  0.0000000000E+00  0.0000000000E+00
END HEADER
       0       1  0.0000000000E+00         1    1         1     14200  0.3120701000E+00  0.6718080000E+00  0.3458022000E+00  0.1458724206E+03  0.4401542400E+02 -0.7996277153E+01        12
       0       1  0.0000000000E+00         2    2         1     10215  0.8726157000E+00  0.9826825000E+00  0.1377594000E+00  0.1792356942E+03  0.7194804750E+02 -0.7158692125E+01         9
       0       1  0.0000000000E+00         3    3         1     24237  0.6687635000E+00  0.1558287000E+00  0.2237750000E+00  0.1000125810E+03  0.2146748610E+02 -0.1043287911E+02        20
       0       1  0.0000000000E+00         4    4         1     16088  0.2094305000E+00  0.7341103000E+00  0.5387650000E+00  0.1332565830E+03  0.9220233090E+02 -0.8538386929E+01        14
       0       1  0.0000000000E+00         5    5         1     13460  0.3571913000E+00  0.9585658000E+00  0.6065484000E+00  0.1161431478E+03  0.2875697400E+01 -0.7618054251E+01        11
       0       1  0.0000000000E+00         6    6         1     12654  0.3595409000E+00  0.4663629000E+00  0.9101744000E+00  0.1101572454E+03  0.7039908870E+02 -0.7526966682E+01        11
       0       1  0.0000000000E+00         7    7         1     28896  0.8143721000E-01  0.6056681000E+00  0.4174325000E+00  0.1204886233E+03  0.4381700430E+02 -0.1157477896E+02        24
       0       1  0.0000000000E+00         8    8         1     29949  0.1946662000E-02  0.5541440000E+00  0.6509401000E+00  0.1380116800E+03  0.5866243200E+02 -0.1180472609E+02        25
       0       1  0.0000000000E+00         9    9         1     28024  0.9407370000E+00  0.9135429000E+00  0.8305396000E+00  0.1436444220E+03  0.1474062870E+02 -0.1115084791E+02        23
       0       1  0.0000000000E+00        10   10         1     13257  0.5449734000E+00  0.9335521000E+00  0.6357710000E+00  0.1592698404E+03  0.2080065630E+02 -0.7609287493E+01        11
       0       1  0.0000000000E+00        11   11         1     17214  0.4500000000E+00  0.2500000000E+00  0.5086276000E-04  0.1707000000E+03  0.9975000000E+02 -0.9000000001E+01        15
       1       1  0.1000000000E-01         1    1         1     14200  0.3120701000E+00  0.6718080000E+00  0.3458021993E+00  0.1458724206E+03  0.4401542400E+02 -0.7996277153E+01        12
       1       1  0.1000000000E-01         2    2         1     10215  0.8726156998E+00  0.9826825000E+00  0.1377594060E+00  0.1792356942E+03  0.7194804750E+02 -0.7158692123E+01         9
       1       1  0.1000000000E-01         3    3         1     24237  0.6687634971E+00  0.1558286982E+00  0.2237750041E+00  0.1000125810E+03  0.2146748609E+02 -0.1043287911E+02        20
       1       1  0.1000000000E-01         4    4         1     16088  0.2094304998E+00  0.7341103002E+00  0.5387649993E+00  0.1332565830E+03  0.9220233090E+02 -0.8538386930E+01        14
       1       1  0.1000000000E-01         5    5         1     13460  0.3571912999E+00  0.9585657999E+00  0.6065483908E+00  0.1161431478E+03  0.2875697400E+01 -0.7618054254E+01        11
       1       1  0.1000000000E-01         6    6         1     12654  0.3595408997E+00  0.4663629004E+00  0.9101743528E+00  0.1101572454E+03  0.7039908870E+02 -0.7526966696E+01        11
       1       1  0.1000000000E-01         7    7         1     28896  0.8143721000E-01  0.6056681000E+00  0.4174325000E+00  0.1204886233E+03  0.4381700430E+02 -0.1157477896E+02        24
       1       1  0.1000000000E-01         8    8         1     29949  0.1946662000E-02  0.5541440000E+00  0.6509401000E+00  0.1380116800E+03  0.5866243200E+02 -0.1180472609E+02        25
       1       1  0.1000000000E-01         9    9         1     28024  0.9407370000E+00  0.9135429000E+00  0.8305396000E+00  0.1436444220E+03  0.1474062870E+02 -0.1115084791E+02        23
       1       1  0.1000000000E-01        10   10         1     13257  0.5449733998E+00  0.9335520998E+00  0.6357709828E+00  0.1592698404E+03  0.2080065630E+02 -0.7609287498E+01        11
       1       1  0.1000000000E-01        11   11         1     17214  0.4500000000E+00  0.2500000000E+00  0.5086566152E-04  0.1707000000E+03  0.9975000000E+02 -0.9000000000E+01        15
       2       1  0.2000000000E-01         1    1         1     14200  0.3120701000E+00  0.6718080000E+00  0.3458021987E+00  0.1458724206E+03  0.4401542400E+02 -0.7996277153E+01        12
       2       1  0.2000000000E-01         2    2         1     10215  0.8726156997E+00  0.9826824999E+00  0.1377594121E+00  0.1792356942E+03  0.7194804750E+02 -0.7158692121E+01         9
       2       1  0.2000000000E-01         3    3         1     24237  0.6687634942E+00  0.1558286965E+00  0.2237750081E+00  0.1000125810E+03  0.2146748609E+02 -0.1043287911E+02        20
       2       1  0.2000000000E-01         4    4         1     16088  0.2094304996E+00  0.7341103003E+00  0.5387649987E+00  0.1332565830E+03  0.9220233090E+02 -0.8538386930E+01        14
       2       1  0.2000000000E-01         5    5         1     13460  0.3571912997E+00  0.9585657999E+00  0.6065483817E+00  0.1161431478E+03  0.2875697400E+01 -0.7618054256E+01        11
       2       1  0.2000000000E-01         6    6         1     12654  0.3595408995E+00  0.4663629008E+00  0.9101743057E+00  0.1101572454E+03  0.7039908870E+02 -0.7526966710E+01        11
       2       1  0.2000000000E-01         7    7         1     28896  0.8143721000E-01  0.6056681000E+00  0.4174325000E+00  0.1204886233E+03  0.4381700430E+02 -0.1157477896E+02        24
       2       1  0.2000000000E-01         8    8         1     29949  0.1946662000E-02  0.5541440000E+00  0.6509401000E+00  0.1380116800E+03  0.5866243200E+02 -0.1180472609E+02        25
       2       1  0.2000000000E-01         9    9         1     28024  0.9407370000E+00  0.9135429000E+00  0.8305396000E+00  0.1436444220E+03  0.1474062870E+02 -0.1115084791E+02        23
       2       1  0.2000000000E-01        10   10         1     13257  0.5449733997E+00  0.9335520996E+00  0.6357709656E+00  0.1592698404E+03  0.2080065630E+02 -0.7609287503E+01        11
       2       1  0.2000000000E-01        11   11         1     17214  0.4500000000E+00  0.2500000001E+00  0.5086856303E-04  0.1707000000E+03  0.9975000000E+02 -0.8999999999E+01        15
       3       1  0.3000000000E-01         1    1         1     14200  0.3120701000E+00  0.6718080000E+00  0.3458021980E+00  0.1458724206E+03  0.4401542400E+02 -0.7996277153E+01        12
       3       1  0.3000000000E-01         2    2         1     10215  0.8726156995E+00  0.9826824999E+00  0.1377594181E+00  0.1792356942E+03  0.7194804750E+02 -0.7158692119E+01         9
       3       1  0.3000000000E-01         3    3         1     24237  0.6687634913E+00  0.1558286947E+00  0.2237750122E+00  0.1000125809E+03  0.2146748608E+02 -0.1043287911E+02        20
       3       1  0.3000000000E-01         4    4         1     16088  0.2094304994E+00  0.7341103005E+00  0.5387649980E+00  0.1332565830E+03  0.9220233090E+02 -0.8538386930E+01        14
       3       1  0.3000000000E-01         5    5         1     13460  0.3571912996E+00  0.9585657998E+00  0.6065483725E+00  0.1161431478E+03  0.2875697400E+01 -0.7618054259E+01        11
       3       1  0.3000000000E-01         6    6         1     12654  0.3595408992E+00  0.4663629012E+00  0.9101742585E+00  0.1101572454E+03  0.7039908870E+02 -0.7526966724E+01        11
       3       1  0.3000000000E-01         7    7         1     28896  0.8143721000E-01  0.6056681000E+00  0.4174325000E+00  0.1204886233E+03  0.4381700430E+02 -0.1157477896E+02        24
       3       1  0.3000000000E-01         8    8         1     29949  0.1946662000E-02  0.5541440000E+00  0.6509401000E+00  0.1380116800E+03  0.5866243200E+02 -0.1180472609E+02        25
       3       1  0.3000000000E-01         9    9         1     28024  0.9407370000E+00  0.9135429000E+00  0.8305396000E+00  0.1436444220E+03  0.1474062870E+02 -0.1115084791E+02        23
       3       1  0.3000000000E-01        10   10         1     13257  0.5449733995E+00  0.9335520994E+00  0.6357709485E+00  0.1592698404E+03  0.2080065630E+02 -0.7609287509E+01        11
       3       1  0.3000000000E-01        11   11         1     17214  0.4499999999E+00  0.2500000001E+00  0.5087146455E-04  0.1707000000E+03  0.9975000000E+02 -0.8999999999E+01        15
       4       1  0.4000000000E-01         1    1         1     14200  0.3120701000E+00  0.6718080000E+00  0.3458021973E+00  0.1458724206E+03  0.4401542400E+02 -0.7996277154E+01        12
       4       1  0.4000000000E-01         2    2         1     10215  0.8726156994E+00  0.9826824998E+00  0.1377594241E+00  0.1792356942E+03  0.7194804750E+02 -0.7158692117E+01         9
       4       1  0.4000000000E-01         3    3         1     24237  0.6687634884E+00  0.1558286930E+00  0.2237750162E+00  0.1000125809E+03  0.2146748608E+02 -0.1043287911E+02        20
       4       1  0.4000000000E-01         4    4         1     16088  0.2094304992E+00  0.7341103007E+00  0.5387649973E+00  0.1332565830E+03  0.9220233090E+02 -0.8538386930E+01        14
       4       1  0.4000000000E-01         5    5         1     13460  0.3571912994E+00  0.9585657998E+00  0.6065483633E+00  0.1161431478E+03  0.2875697399E+01 -0.7618054262E+01        11
       4       1  0.4000000000E-01         6    6         1     12654  0.3595408989E+00  0.4663629016E+00  0.9101742114E+00  0.1101572454E+03  0.7039908870E+02 -0.7526966738E+01        11
       4       1  0.4000000000E-01         7    7         1     28896  0.8143721000E-01  0.6056681000E+00  0.4174325000E+00  0.1204886233E+03  0.4381700430E+02 -0.1157477896E+02        24
       4       1  0.4000000000E-01         8    8         1     29949  0.1946662000E-02  0.5541440000E+00  0.6509401000E+00  0.1380116800E+03  0.5866243200E+02 -0.1180472609E+02        25
       4       1  0.4000000000E-01         9    9         1     28024  0.9407370000E+00  0.9135429000E+00  0.8305396000E+00  0.1436444220E+03  0.1474062870E+02 -0.1115084791E+02        23
       4       1  0.4000000000E-01        10   10         1     13257  0.5449733993E+00  0.9335520992E+00  0.6357709313E+00  0.1592698404E+03  0.2080065630E+02 -0.7609287514E+01        11
       4       1  0.4000000000E-01        11   11         1     17214  0.4499999999E+00  0.2500000001E+00  0.5087436606E-04  0.1707000000E+03  0.9975000000E+02 -0.8999999998E+01        15
       5       1  0.5000000000E-01         1    1         1     14200  0.3120701000E+00  0.6718080000E+00  0.3458021966E+00  0.1458724206E+03  0.4401542400E+02 -0.7996277154E+01        12
       5       1  0.5000000000E-01         2    2         1     10215  0.8726156992E+00  0.9826824998E+00  0.1377594301E+00  0.1792356942E+03  0.7194804750E+02 -0.7158692116E+01         9
       5       1  0.5000000000E-01         3    3         1     24237  0.6687634856E+00  0.1558286912E+00  0.2237750203E+00  0.1000125809E+03  0.2146748607E+02 -0.1043287911E+02        20
       5       1  0.5000000000E-01         4    4         1     16088  0.2094304990E+00  0.7341103008E+00  0.5387649966E+00  0.1332565830E+03  0.9220233090E+02 -0.8538386930E+01        14
       5       1  0.5000000000E-01         5    5         1     13460  0.3571912993E+00  0.9585657997E+00  0.6065483542E+00  0.1161431478E+03  0.2875697399E+01 -0.7618054265E+01        11
       5       1  0.5000000000E-01         6    6         1     12654  0.3595408986E+00  0.4663629020E+00  0.9101741642E+00  0.1101572454E+03  0.7039908871E+02 -0.7526966752E+01        11
       5       1  0.5000000000E-01         7    7         1     28896  0.8143721000E-01  0.6056681000E+00  0.4174325000E+00  0.1204886233E+03  0.4381700430E+02 -0.1157477896E+02        24
       5       1  0.5000000000E-01         8    8         1     29949  0.1946662000E-02  0.5541440000E+00  0.6509401000E+00  0.1380116800E+03  0.5866243200E+02 -0.1180472609E+02        25
       5       1  0.5000000000E-01         9    9         1     28024  0.9407370000E+00  0.9135429000E+00  0.8305396000E+00  0.1436444220E+03  0.1474062870E+02 -0.1115084791E+02        23
       5       1  0.5000000000E-01        10   10         1     13257  0.5449733991E+00  0.9335520991E+00  0.6357709141E+00  0.1592698404E+03  0.2080065630E+02 -0.7609287519E+01        11
       5       1  0.5000000000E-01        11   11         1     17214  0.4499999999E+00  0.2500000001E+00  0.5087726758E-04  0.1707000000E+03  0.9975000000E+02 -0.8999999997E+01        15
       6       1  0.6000000000E-01         1    1         1     14200  0.3120701000E+00  0.6718080000E+00  0.3458021960E+00  0.1458724206E+03  0.4401542400E+02 -0.7996277154E+01        12
       6       1  0.6000000000E-01         2    2         1     10215  0.8726156991E+00  0.9826824997E+00  0.1377594362E+00  0.1792356942E+03  0.7194804750E+02 -0.7158692114E+01         9
       6       1  0.6000000000E-01         3    3         1     24237  0.6687634827E+00  0.1558286895E+00  0.2237750244E+00  0.1000125809E+03  0.2146748607E+02 -0.1043287910E+02        20
       6       1  0.6000000000E-01         4    4         1     16088  0.2094304988E+00  0.7341103010E+00  0.5387649960E+00  0.1332565830E+03  0.9220233090E+02 -0.8538386931E+01        14
       6       1  0.6000000000E-01         5    5         1     13460  0.3571912991E+00  0.9585657997E+00  0.6065483450E+00  0.1161431478E+03  0.2875697399E+01 -0.7618054267E+01        11
       6       1  0.6000000000E-01         6    6         1     12654  0.3595408984E+00  0.4663629024E+00  0.9101741171E+00  0.1101572454E+03  0.7039908871E+02 -0.7526966767E+01        11
       6       1  0.6000000000E-01         7    7         1     28896  0.8143721000E-01  0.6056681000E+00  0.4174325000E+00  0.1204886233E+03  0.4381700430E+02 -0.1157477896E+02        24
       6       1  0.6000000000E-01         8    8         1     29949  0.1946662000E-02  0.5541440000E+00  0.6509401000E+00  0.1380116800E+03  0.5866243200E+02 -0.1180472609E+02        25
       6       1  0.6000000000E-01         9    9         1     28024  0.9407370000E+00  0.9135429000E+00  0.8305396000E+00  0.1436444220E+03  0.1474062870E+02 -0.1115084791E+02        23
       6       1  0.6000000000E-01        10   10         1     13257  0.5449733990E+00  0.9335520989E+00  0.6357708969E+00  0.1592698404E+03  0.2080065630E+02 -0.7609287524E+01        11
       6       1  0.6000000000E-01        11   11         1     17214  0.4499999999E+00  0.2500000002E+00  0.5088016909E-04  0.1707000000E+03  0.9975000000E+02 -0.8999999996E+01        15
       7       1  0.7000000000E-01         1    1         1     14200  0.3120701000E+00  0.6718080000E+00  0.3458021953E+00  0.1458724206E+03  0.4401542400E+02 -0.7996277154E+01        12
       7       1  0.7000000000E-01         2    2         1     10215  0.8726156989E+00  0.9826824997E+00  0.1377594422E+00  0.1792356942E+03  0.7194804750E+02 -0.7158692112E+01         9
       7       1  0.7000000000E-01         3    3         1     24237  0.6687634798E+00  0.1558286877E+00  0.2237750284E+00  0.1000125809E+03  0.2146748606E+02 -0.1043287910E+02        20
       7       1  0.7000000000E-01         4    4         1     16088  0.2094304986E+00  0.7341103012E+00  0.5387649953E+00  0.1332565830E+03  0.9220233090E+02 -0.8538386931E+01        14
       7       1  0.7000000000E-01         5    5         1     13460  0.3571912990E+00  0.9585657996E+00  0.6065483358E+00  0.1161431478E+03  0.2875697399E+01 -0.7618054270E+01        11
       7       1  0.7000000000E-01         6    6         1     12654  0.3595408981E+00  0.4663629028E+00  0.9101740699E+00  0.1101572454E+03  0.7039908871E+02 -0.7526966781E+01        11
       7       1  0.7000000000E-01         7    7         1     28896  0.8143721000E-01  0.6056681000E+00  0.4174325000E+00  0.1204886233E+03  0.4381700430E+02 -0.1157477896E+02        24
       7       1  0.7000000000E-01         8    8         1     29949  0.1946661999E-02  0.5541440000E+00  0.6509401000E+00  0.1380116800E+03  0.5866243200E+02 -0.1180472609E+02        25
       7       1  0.7000000000E-01         9    9         1     28024  0.9407370000E+00  0.9135429000E+00  0.8305396000E+00  0.1436444220E+03  0.1474062870E+02 -0.1115084791E+02        23
       7       1  0.7000000000E-01        10   10         1     13257  0.5449733988E+00  0.9335520987E+00  0.6357708797E+00  0.1592698404E+03  0.2080065630E+02 -0.7609287529E+01        11
       7       1  0.7000000000E-01        11   11         1     17214  0.4499999999E+00  0.2500000002E+00  0.5088307061E-04  0.1707000000E+03  0.9975000000E+02 -0.8999999995E+01        15
       8       1  0.8000000000E-01         1    1         1     14200  0.3120701000E+00  0.6718080000E+00  0.3458021946E+00  0.1458724206E+03  0.4401542400E+02 -0.7996277154E+01        12
       8       1  0.8000000000E-01         2    2         1     10215  0.8726156987E+00  0.9826824996E+00  0.1377594482E+00  0.1792356942E+03  0.7194804750E+02 -0.7158692110E+01         9
       8       1  0.8000000000E-01         3    3         1     24237  0.6687634769E+00  0.1558286860E+00  0.2237750325E+00  0.1000125809E+03  0.2146748606E+02 -0.1043287910E+02        20
       8       1  0.8000000000E-01         4    4         1     16088  0.2094304984E+00  0.7341103014E+00  0.5387649946E+00  0.1332565830E+03  0.9220233090E+02 -0.8538386931E+01        14
       8       1  0.8000000000E-01         5    5         1     13460  0.3571912988E+00  0.9585657996E+00  0.6065483267E+00  0.1161431478E+03  0.2875697399E+01 -0.7618054273E+01        11
       8       1  0.8000000000E-01         6    6         1     12654  0.3595408978E+00  0.4663629032E+00  0.9101740228E+00  0.1101572454E+03  0.7039908871E+02 -0.7526966795E+01        11
       8       1  0.8000000000E-01         7    7         1     28896  0.8143721000E-01  0.6056681000E+00  0.4174325000E+00  0.1204886233E+03  0.4381700430E+02 -0.1157477896E+02        24
       8       1  0.8000000000E-01         8    8         1     29949  0.1946661999E-02  0.5541440000E+00  0.6509401000E+00  0.1380116800E+03  0.5866243200E+02 -0.1180472609E+02        25
       8       1  0.8000000000E-01         9    9         1     28024  0.9407370000E+00  0.9135429000E+00  0.8305396000E+00  0.1436444220E+03  0.1474062870E+02 -0.1115084791E+02        23
       8       1  0.8000000000E-01        10   10         1     13257  0.5449733986E+00  0.9335520985E+00  0.6357708626E+00  0.1592698404E+03  0.2080065630E+02 -0.7609287534E+01        11
       8       1  0.8000000000E-01        11   11         1     17214  0.4499999998E+00  0.2500000002E+00  0.5088597212E-04  0.1707000000E+03  0.9975000000E+02 -0.8999999994E+01        15
       9       1  0.9000000000E-01         1    1         1     14200  0.3120701000E+00  0.6718080000E+00  0.3458021940E+00  0.1458724206E+03  0.4401542400E+02 -0.7996277155E+01        12
       9       1  0.9000000000E-01         2    2         1     10215  0.8726156986E+00  0.9826824996E+00  0.1377594543E+00  0.1792356942E+03  0.7194804750E+02 -0.7158692108E+01         9
       9       1  0.9000000000E-01         3    3         1     24237  0.6687634740E+00  0.1558286842E+00  0.2237750365E+00  0.1000125808E+03  0.2146748605E+02 -0.1043287910E+02        20
       9       1  0.9000000000E-01         4    4         1     16088  0.2094304982E+00  0.7341103015E+00  0.5387649939E+00  0.1332565830E+03  0.9220233090E+02 -0.8538386931E+01        14
       9       1  0.9000000000E-01         5    5         1     13460  0.3571912987E+00  0.9585657995E+00  0.6065483175E+00  0.1161431478E+03  0.2875697399E+01 -0.7618054276E+01        11
       9       1  0.9000000000E-01         6    6         1     12654  0.3595408975E+00  0.4663629036E+00  0.9101739756E+00  0.1101572454E+03  0.7039908871E+02 -0.7526966809E+01        11
       9       1  0.9000000000E-01         7    7         1     28896  0.8143721000E-01  0.6056681000E+00  0.4174325000E+00  0.1204886233E+03  0.4381700430E+02 -0.1157477896E+02        24
       9       1  0.9000000000E-01         8    8         1     29949  0.1946661999E-02  0.5541440000E+00  0.6509401000E+00  0.1380116800E+03  0.5866243200E+02 -0.1180472609E+02        25
       9       1  0.9000000000E-01         9    9         1     28024  0.9407370000E+00  0.9135429000E+00  0.8305396000E+00  0.1436444220E+03  0.1474062870E+02 -0.1115084791E+02        23
       9       1  0.9000000000E-01        10   10         1     13257  0.5449733985E+00  0.9335520983E+00  0.6357708454E+00  0.1592698404E+03  0.2080065629E+02 -0.7609287540E+01        11
       9       1  0.9000000000E-01        11   11         1     17214  0.4499999998E+00  0.2500000002E+00  0.5088887364E-04  0.1707000000E+03  0.9975000000E+02 -0.8999999993E+01        15
      10       1  0.1000000000E+00         1    1         1     14200  0.3120701000E+00  0.6718080000E+00  0.3458021933E+00  0.1458724206E+03  0.4401542400E+02 -0.7996277155E+01        12
      10       1  0.1000000000E+00         2    2         1     10215  0.8726156984E+00  0.9826824996E+00  0.1377594603E+00  0.1792356942E+03  0.7194804750E+02 -0.7158692107E+01         9
      10       1  0.1000000000E+00         3    3         1     24237  0.6687634711E+00  0.1558286825E+00  0.2237750406E+00  0.1000125808E+03  0.2146748605E+02 -0.1043287910E+02        20
      10       1  0.1000000000E+00         4    4         1     16088  0.2094304980E+00  0.7341103017E+00  0.5387649933E+00  0.1332565830E+03  0.9220233091E+02 -0.8538386931E+01        14
      10       1  0.1000000000E+00         5    5         1     13460  0.3571912985E+00  0.9585657995E+00  0.6065483083E+00  0.1161431478E+03  0.2875697398E+01 -0.7618054278E+01        11
      10       1  0.1000000000E+00         6    6         1     12654  0.3595408973E+00  0.4663629039E+00  0.9101739285E+00  0.1101572454E+03  0.7039908871E+02 -0.7526966823E+01        11
      10       1  0.1000000000E+00         7    7         1     28896  0.8143721000E-01  0.6056681000E+00  0.4174325000E+00  0.1204886233E+03  0.4381700430E+02 -0.1157477896E+02        24
      10       1  0.1000000000E+00         8    8         1     29949  0.1946661999E-02  0.5541440000E+00  0.6509401000E+00  0.1380116800E+03  0.5866243200E+02 -0.1180472609E+02        25
      10       1  0.1000000000E+00         9    9         1     28024  0.9407370000E+00  0.9135429000E+00  0.8305396000E+00  0.1436444220E+03  0.1474062870E+02 -0.1115084791E+02        23
      10       1  0.1000000000E+00        10   10         1     13257  0.5449733983E+00  0.9335520981E+00  0.6357708282E+00  0.1592698404E+03  0.2080065629E+02 -0.7609287545E+01        11
      10       1  0.1000000000E+00        11   11         1     17214  0.4499999998E+00  0.2500000003E+00  0.5089177515E-04  0.1707000000E+03  0.9975000000E+02 -0.8999999993E+01        15
      11       1  0.1100000000E+00         1    1         1     14200  0.3120700999E+00  0.6718080000E+00  0.3458021926E+00  0.1458724206E+03  0.4401542400E+02 -0.7996277155E+01        12
      11       1  0.1100000000E+00         2    2         1     10215  0.8726156983E+00  0.9826824995E+00  0.1377594663E+00  0.1792356942E+03  0.7194804750E+02 -0.7158692105E+01         9
      11       1  0.1100000000E+00         3    3         1     24237  0.6687634682E+00  0.1558286807E+00  0.2237750447E+00  0.1000125808E+03  0.2146748604E+02 -0.1043287910E+02        20
      11       1  0.1100000000E+00         4    4         1     16088  0.2094304978E+00  0.7341103019E+00  0.5387649926E+00  0.1332565830E+03  0.9220233091E+02 -0.8538386932E+01        14
      11       1  0.1100000000E+00         5    5         1     13460  0.3571912984E+00  0.9585657994E+00  0.6065482992E+00  0.1161431478E+03  0.2875697398E+01 -0.7618054281E+01        11
      11       1  0.1100000000E+00         6    6         1     12654  0.3595408970E+00  0.4663629043E+00  0.9101738813E+00  0.1101572454E+03  0.7039908871E+02 -0.7526966837E+01        11
      11       1  0.1100000000E+00         7    7         1     28896  0.8143721000E-01  0.6056681000E+00  0.4174325000E+00  0.1204886233E+03  0.4381700430E+02 -0.1157477896E+02        24
      11       1  0.1100000000E+00         8    8         1     29949  0.1946661999E-02  0.5541440000E+00  0.6509401000E+00  0.1380116800E+03  0.5866243200E+02 -0.1180472609E+02        25
      11       1  0.1100000000E+00         9    9         1     28024  0.9407370000E+00  0.9135429000E+00  0.8305396000E+00  0.1436444220E+03  0.1474062870E+02 -0.1115084791E+02        23
      11       1  0.1100000000E+00        10   10         1     13257  0.5449733981E+00  0.9335520979E+00  0.6357708110E+00  0.1592698404E+03  0.2080065629E+02 -0.7609287550E+01        11
      11       1  0.1100000000E+00        11   11         1     17214  0.4499999998E+00  0.2500000003E+00  0.5089467667E-04  0.1707000000E+03  0.9975000000E+02 -0.8999999992E+01        15
      12       1  0.1200000000E+00         1    1         1     14200  0.3120700999E+00  0.6718080000E+00  0.3458021919E+00  0.1458724206E+03  0.4401542400E+02 -0.7996277155E+01        12
      12       1  0.1200000000E+00         2    2         1     10215  0.8726156981E+00  0.9826824995E+00  0.1377594723E+00  0.1792356942E+03  0.7194804750E+02 -0.7158692103E+01         9
      12       1  0.1200000000E+00         3    3         1     24237  0.6687634653E+00  0.1558286790E+00  0.2237750487E+00  0.1000125808E+03  0.2146748604E+02 -0.1043287910E+02        20
      12       1  0.1200000000E+00         4    4         1     16088  0.2094304976E+00  0.7341103020E+00  0.5387649919E+00  0.1332565830E+03  0.9220233091E+02 -0.8538386932E+01        14
      12       1  0.1200000000E+00         5    5         1     13460  0.3571912982E+00  0.9585657994E+00  0.6065482900E+00  0.1161431478E+03  0.2875697398E+01 -0.7618054284E+01        11
      12       1  0.1200000000E+00         6    6         1     12654  0.3595408967E+00  0.4663629047E+00  0.9101738342E+00  0.1101572454E+03  0.7039908871E+02 -0.7526966851E+01        11
      12       1  0.1200000000E+00         7    7         1     28896  0.8143721000E-01  0.6056681000E+00  0.4174325000E+00  0.1204886233E+03  0.4381700430E+02 -0.1157477896E+02        24
      12       1  0.1200000000E+00         8    8         1     29949  0.1946661999E-02  0.5541440000E+00  0.6509401000E+00  0.1380116800E+03  0.5866243200E+02 -0.1180472609E+02        25
      12       1  0.1200000000E+00         9    9         1     28024  0.9407370000E+00  0.9135429000E+00  0.8305396000E+00  0.1436444220E+03  0.1474062870E+02 -0.1115084791E+02        23
      12       1  0.1200000000E+00        10   10         1     13257  0.5449733980E+00  0.9335520977E+00  0.6357707938E+00  0.1592698404E+03  0.2080065629E+02 -0.7609287555E+01        11
      12       1  0.1200000000E+00        11   11         1     17214  0.4499999998E+00  0.2500000003E+00  0.5089757818E-04  0.1707000000E+03  0.9975000000E+02 -0.8999999991E+01        15
      13       1  0.1300000000E+00         1    1         1     14200  0.3120700999E+00  0.6718080000E+00  0.3458021913E+00  0.1458724206E+03  0.4401542400E+02 -0.7996277155E+01        12
      13       1  0.1300000000E+00         2    2         1     10215  0.8726156980E+00  0.9826824994E+00  0.1377594784E+00  0.1792356942E+03  0.7194804750E+02 -0.7158692101E+01         9
      13       1  0.1300000000E+00         3    3         1     24237  0.6687634625E+00  0.1558286772E+00  0.2237750528E+00  0.1000125808E+03  0.2146748603E+02 -0.1043287910E+02        20
      13       1  0.1300000000E+00         4    4         1     16088  0.2094304974E+00  0.7341103022E+00  0.5387649912E+00  0.1332565830E+03  0.9220233091E+02 -0.8538386932E+01        14
      13       1  0.1300000000E+00         5    5         1     13460  0.3571912981E+00  0.9585657993E+00  0.6065482808E+00  0.1161431478E+03  0.2875697398E+01 -0.7618054287E+01        11
      13       1  0.1300000000E+00         6    6         1     12654  0.3595408964E+00  0.4663629051E+00  0.9101737870E+00  0.1101572454E+03  0.7039908872E+02 -0.7526966866E+01        11
      13       1  0.1300000000E+00         7    7         1     28896  0.8143721000E-01  0.6056681000E+00  0.4174325000E+00  0.1204886233E+03  0.4381700430E+02 -0.1157477896E+02        24
      13       1  0.1300000000E+00         8    8         1     29949  0.1946661999E-02  0.5541440000E+00  0.6509401000E+00  0.1380116800E+03  0.5866243200E+02 -0.1180472609E+02        25
      13       1  0.1300000000E+00         9    9         1     28024  0.9407370000E+00  0.9135429000E+00  0.8305396000E+00  0.1436444220E+03  0.1474062870E+02 -0.1115084791E+02        23
      13       1  0.1300000000E+00        10   10         1     13257  0.5449733978E+00  0.9335520976E+00  0.6357707766E+00  0.1592698404E+03  0.2080065629E+02 -0.7609287560E+01        11
      13       1  0.1300000000E+00        11   11         1     17214  0.4499999998E+00  0.2500000003E+00  0.5090047970E-04  0.1707000000E+03  0.9975000000E+02 -0.8999999990E+01        15
      14       1  0.1400000000E+00         1    1         1     14200  0.3120700999E+00  0.6718080000E+00  0.3458021906E+00  0.1458724206E+03  0.4401542400E+02 -0.7996277156E+01        12
      14       1  0.1400000000E+00         2    2         1     10215  0.8726156978E+00  0.9826824994E+00  0.1377594844E+00  0.1792356942E+03  0.7194804750E+02 -0.7158692099E+01         9
      14       1  0.1400000000E+00         3    3         1     24237  0.6687634596E+00  0.1558286755E+00  0.2237750568E+00  0.1000125808E+03  0.2146748603E+02 -0.1043287910E+02        20
      14       1  0.1400000000E+00         4    4         1     16088  0.2094304971E+00  0.7341103024E+00  0.5387649906E+00  0.1332565830E+03  0.9220233091E+02 -0.8538386932E+01        14