# File generated by Flopy version 3.9.2 on 04/16/2025 at 15:18:05.
BEGIN options
END options

BEGIN griddata
  strt
    CONSTANT       1.00000000
END griddata

