# File generated by Flopy version 3.9.3 on 07/23/2025 at 15:50:10.
BEGIN options
  XORIGIN       0.00000000
  YORIGIN       0.00000000
  ANGROT       0.00000000
END options

BEGIN dimensions
  NLAY  10
  NROW  10
  NCOL  20
END dimensions

BEGIN griddata
  delr
    CONSTANT      10.50000000
  delc
    CONSTANT      10.50000000
  top
    INTERNAL  FACTOR  1.0
        -4.50002670      -4.50002670      -4.50002670      -4.50002670      -4.50002670      -4.50002670      -4.50002670      -4.50002670      -4.50002670      -4.50002670      -4.50002670      -4.50002670      -4.50002670      -4.50002670      -4.50002670      -4.50002670      -4.50002670      -4.50002670      -4.50002670      -4.50002670
        -4.50002670      -4.50002670      -4.50002670      -4.50002670      -4.50002670      -4.50002670      -4.50002670      -4.50002670      -4.50002670      -4.50002670      -4.50002670      -4.50002670      -4.50002670      -4.50002670      -4.50002670      -4.50002670      -4.50002670      -4.50002670      -4.50002670      -4.50002670
        -4.50002670      -4.50002670      -4.50002670      -4.50002670      -4.50002670      -4.50002670      -4.50002670      -4.50002670      -4.50002670      -4.50002670      -4.50002670      -4.50002670      -4.50002670      -4.50002670      -4.50002670      -4.50002670      -4.50002670      -4.50002670      -4.50002670      -4.50002670
        -4.50002670      -4.50002670      -4.50002670      -4.50002670      -4.50002670      -4.50002670      -4.50002670      -4.50002670      -4.50002670      -4.50002670      -4.50002670      -4.50002670      -4.50002670      -4.50002670      -4.50002670      -4.50002670      -4.50002670      -4.50002670      -4.50002670      -4.50002670
        -4.50002670      -4.50002670      -4.50002670      -4.50002670      -4.50002670      -4.50002670      -4.50002670      -4.50002670      -4.50002670      -4.50002670      -4.50002670      -4.50002670      -4.50002670      -4.50002670      -4.50002670      -4.50002670      -4.50002670      -4.50002670      -4.50002670      -4.50002670
        -4.50002670      -4.50002670      -4.50002670      -4.50002670      -4.50002670      -4.50002670      -4.50002670      -4.50002670      -4.50002670      -4.50002670      -4.50002670      -4.50002670      -4.50002670      -4.50002670      -4.50002670      -4.50002670      -4.50002670      -4.50002670      -4.50002670      -4.50002670
        -4.50002670      -4.50002670      -4.50002670      -4.50002670      -4.50002670      -4.50002670      -4.50002670      -4.50002670      -4.50002670      -4.50002670      -4.50002670      -4.50002670      -4.50002670      -4.50002670      -4.50002670      -4.50002670      -4.50002670      -4.50002670      -4.50002670      -4.50002670
        -4.50002670      -4.50002670      -4.50002670      -4.50002670      -4.50002670      -4.50002670      -4.50002670      -4.50002670      -4.50002670      -4.50002670      -4.50002670      -4.50002670      -4.50002670      -4.50002670      -4.50002670      -4.50002670      -4.50002670      -4.50002670      -4.50002670      -4.50002670
        -4.50002670      -4.50002670      -4.50002670      -4.50002670      -4.50002670      -4.50002670      -4.50002670      -4.50002670      -4.50002670      -4.50002670      -4.50002670      -4.50002670      -4.50002670      -4.50002670      -4.50002670      -4.50002670      -4.50002670      -4.50002670      -4.50002670      -4.50002670
        -4.50002670      -4.50002670      -4.50002670      -4.50002670      -4.50002670      -4.50002670      -4.50002670      -4.50002670      -4.50002670      -4.50002670      -4.50002670      -4.50002670      -4.50002670      -4.50002670      -4.50002670      -4.50002670      -4.50002670      -4.50002670      -4.50002670      -4.50002670
  botm  LAYERED
    INTERNAL  FACTOR  1.0
          -5.55002403      -5.55002403      -5.55002403      -5.55002403      -5.55002403      -5.55002403      -5.55002403      -5.55002403      -5.55002403      -5.55002403      -5.55002403      -5.55002403      -5.55002403      -5.55002403      -5.55002403      -5.55002403      -5.55002403      -5.55002403      -5.55002403      -5.55002403
          -5.55002403      -5.55002403      -5.55002403      -5.55002403      -5.55002403      -5.55002403      -5.55002403      -5.55002403      -5.55002403      -5.55002403      -5.55002403      -5.55002403      -5.55002403      -5.55002403      -5.55002403      -5.55002403      -5.55002403      -5.55002403      -5.55002403      -5.55002403
          -5.55002403      -5.55002403      -5.55002403      -5.55002403      -5.55002403      -5.55002403      -5.55002403      -5.55002403      -5.55002403      -5.55002403      -5.55002403      -5.55002403      -5.55002403      -5.55002403      -5.55002403      -5.55002403      -5.55002403      -5.55002403      -5.55002403      -5.55002403
          -5.55002403      -5.55002403      -5.55002403      -5.55002403      -5.55002403      -5.55002403      -5.55002403      -5.55002403      -5.55002403      -5.55002403      -5.55002403      -5.55002403      -5.55002403      -5.55002403      -5.55002403      -5.55002403      -5.55002403      -5.55002403      -5.55002403      -5.55002403
          -5.55002403      -5.55002403      -5.55002403      -5.55002403      -5.55002403      -5.55002403      -5.55002403      -5.55002403      -5.55002403      -5.55002403      -5.55002403      -5.55002403      -5.55002403      -5.55002403      -5.55002403      -5.55002403      -5.55002403      -5.55002403      -5.55002403      -5.55002403
          -5.55002403      -5.55002403      -5.55002403      -5.55002403      -5.55002403      -5.55002403      -5.55002403      -5.55002403      -5.55002403      -5.55002403      -5.55002403      -5.55002403      -5.55002403      -5.55002403      -5.55002403      -5.55002403      -5.55002403      -5.55002403      -5.55002403      -5.55002403
          -5.55002403      -5.55002403      -5.55002403      -5.55002403      -5.55002403      -5.55002403      -5.55002403      -5.55002403      -5.55002403      -5.55002403      -5.55002403      -5.55002403      -5.55002403      -5.55002403      -5.55002403      -5.55002403      -5.55002403      -5.55002403      -5.55002403      -5.55002403
          -5.55002403      -5.55002403      -5.55002403      -5.55002403      -5.55002403      -5.55002403      -5.55002403      -5.55002403      -5.55002403      -5.55002403      -5.55002403      -5.55002403      -5.55002403      -5.55002403      -5.55002403      -5.55002403      -5.55002403      -5.55002403      -5.55002403      -5.55002403
          -5.55002403      -5.55002403      -5.55002403      -5.55002403      -5.55002403      -5.55002403      -5.55002403      -5.55002403      -5.55002403      -5.55002403      -5.55002403      -5.55002403      -5.55002403      -5.55002403      -5.55002403      -5.55002403      -5.55002403      -5.55002403      -5.55002403      -5.55002403
          -5.55002403      -5.55002403      -5.55002403      -5.55002403      -5.55002403      -5.55002403      -5.55002403      -5.55002403      -5.55002403      -5.55002403      -5.55002403      -5.55002403      -5.55002403      -5.55002403      -5.55002403      -5.55002403      -5.55002403      -5.55002403      -5.55002403      -5.55002403
    INTERNAL  FACTOR  1.0
          -6.60002136      -6.60002136      -6.60002136      -6.60002136      -6.60002136      -6.60002136      -6.60002136      -6.60002136      -6.60002136      -6.60002136      -6.60002136      -6.60002136      -6.60002136      -6.60002136      -6.60002136      -6.60002136      -6.60002136      -6.60002136      -6.60002136      -6.60002136
          -6.60002136      -6.60002136      -6.60002136      -6.60002136      -6.60002136      -6.60002136      -6.60002136      -6.60002136      -6.60002136      -6.60002136      -6.60002136      -6.60002136      -6.60002136      -6.60002136      -6.60002136      -6.60002136      -6.60002136      -6.60002136      -6.60002136      -6.60002136
          -6.60002136      -6.60002136      -6.60002136      -6.60002136      -6.60002136      -6.60002136      -6.60002136      -6.60002136      -6.60002136      -6.60002136      -6.60002136      -6.60002136      -6.60002136      -6.60002136      -6.60002136      -6.60002136      -6.60002136      -6.60002136      -6.60002136      -6.60002136
          -6.60002136      -6.60002136      -6.60002136      -6.60002136      -6.60002136      -6.60002136      -6.60002136      -6.60002136      -6.60002136      -6.60002136      -6.60002136      -6.60002136      -6.60002136      -6.60002136      -6.60002136      -6.60002136      -6.60002136      -6.60002136      -6.60002136      -6.60002136
          -6.60002136      -6.60002136      -6.60002136      -6.60002136      -6.60002136      -6.60002136      -6.60002136      -6.60002136      -6.60002136      -6.60002136      -6.60002136      -6.60002136      -6.60002136      -6.60002136      -6.60002136      -6.60002136      -6.60002136      -6.60002136      -6.60002136      -6.60002136
          -6.60002136      -6.60002136      -6.60002136      -6.60002136      -6.60002136      -6.60002136      -6.60002136      -6.60002136      -6.60002136      -6.60002136      -6.60002136      -6.60002136      -6.60002136      -6.60002136      -6.60002136      -6.60002136      -6.60002136      -6.60002136      -6.60002136      -6.60002136
          -6.60002136      -6.60002136      -6.60002136      -6.60002136      -6.60002136      -6.60002136      -6.60002136      -6.60002136      -6.60002136      -6.60002136      -6.60002136      -6.60002136      -6.60002136      -6.60002136      -6.60002136      -6.60002136      -6.60002136      -6.60002136      -6.60002136      -6.60002136
          -6.60002136      -6.60002136      -6.60002136      -6.60002136      -6.60002136      -6.60002136      -6.60002136      -6.60002136      -6.60002136      -6.60002136      -6.60002136      -6.60002136      -6.60002136      -6.60002136      -6.60002136      -6.60002136      -6.60002136      -6.60002136      -6.60002136      -6.60002136
          -6.60002136      -6.60002136      -6.60002136      -6.60002136      -6.60002136      -6.60002136      -6.60002136      -6.60002136      -6.60002136      -6.60002136      -6.60002136      -6.60002136      -6.60002136      -6.60002136      -6.60002136      -6.60002136      -6.60002136      -6.60002136      -6.60002136      -6.60002136
          -6.60002136      -6.60002136      -6.60002136      -6.60002136      -6.60002136      -6.60002136      -6.60002136      -6.60002136      -6.60002136      -6.60002136      -6.60002136      -6.60002136      -6.60002136      -6.60002136      -6.60002136      -6.60002136      -6.60002136      -6.60002136      -6.60002136      -6.60002136
    INTERNAL  FACTOR  1.0
          -7.65001869      -7.65001869      -7.65001869      -7.65001869      -7.65001869      -7.65001869      -7.65001869      -7.65001869      -7.65001869      -7.65001869      -7.65001869      -7.65001869      -7.65001869      -7.65001869      -7.65001869      -7.65001869      -7.65001869      -7.65001869      -7.65001869      -7.65001869
          -7.65001869      -7.65001869      -7.65001869      -7.65001869      -7.65001869      -7.65001869      -7.65001869      -7.65001869      -7.65001869      -7.65001869      -7.65001869      -7.65001869      -7.65001869      -7.65001869      -7.65001869      -7.65001869      -7.65001869      -7.65001869      -7.65001869      -7.65001869
          -7.65001869      -7.65001869      -7.65001869      -7.65001869      -7.65001869      -7.65001869      -7.65001869      -7.65001869      -7.65001869      -7.65001869      -7.65001869      -7.65001869      -7.65001869      -7.65001869      -7.65001869      -7.65001869      -7.65001869      -7.65001869      -7.65001869      -7.65001869
          -7.65001869      -7.65001869      -7.65001869      -7.65001869      -7.65001869      -7.65001869      -7.65001869      -7.65001869      -7.65001869      -7.65001869      -7.65001869      -7.65001869      -7.65001869      -7.65001869      -7.65001869      -7.65001869      -7.65001869      -7.65001869      -7.65001869      -7.65001869
          -7.65001869      -7.65001869      -7.65001869      -7.65001869      -7.65001869      -7.65001869      -7.65001869      -7.65001869      -7.65001869      -7.65001869      -7.65001869      -7.65001869      -7.65001869      -7.65001869      -7.65001869      -7.65001869      -7.65001869      -7.65001869      -7.65001869      -7.65001869
          -7.65001869      -7.65001869      -7.65001869      -7.65001869      -7.65001869      -7.65001869      -7.65001869      -7.65001869      -7.65001869      -7.65001869      -7.65001869      -7.65001869      -7.65001869      -7.65001869      -7.65001869      -7.65001869      -7.65001869      -7.65001869      -7.65001869      -7.65001869
          -7.65001869      -7.65001869      -7.65001869      -7.65001869      -7.65001869      -7.65001869      -7.65001869      -7.65001869      -7.65001869      -7.65001869      -7.65001869      -7.65001869      -7.65001869      -7.65001869      -7.65001869      -7.65001869      -7.65001869      -7.65001869      -7.65001869      -7.65001869
          -7.65001869      -7.65001869      -7.65001869      -7.65001869      -7.65001869      -7.65001869      -7.65001869      -7.65001869      -7.65001869      -7.65001869      -7.65001869      -7.65001869      -7.65001869      -7.65001869      -7.65001869      -7.65001869      -7.65001869      -7.65001869      -7.65001869      -7.65001869
          -7.65001869      -7.65001869      -7.65001869      -7.65001869      -7.65001869      -7.65001869      -7.65001869      -7.65001869      -7.65001869      -7.65001869      -7.65001869      -7.65001869      -7.65001869      -7.65001869      -7.65001869      -7.65001869      -7.65001869      -7.65001869      -7.65001869      -7.65001869
          -7.65001869      -7.65001869      -7.65001869      -7.65001869      -7.65001869      -7.65001869      -7.65001869      -7.65001869      -7.65001869      -7.65001869      -7.65001869      -7.65001869      -7.65001869      -7.65001869      -7.65001869      -7.65001869      -7.65001869      -7.65001869      -7.65001869      -7.65001869
    INTERNAL  FACTOR  1.0
          -8.70001602      -8.70001602      -8.70001602      -8.70001602      -8.70001602      -8.70001602      -8.70001602      -8.70001602      -8.70001602      -8.70001602      -8.70001602      -8.70001602      -8.70001602      -8.70001602      -8.70001602      -8.70001602      -8.70001602      -8.70001602      -8.70001602      -8.70001602
          -8.70001602      -8.70001602      -8.70001602      -8.70001602      -8.70001602      -8.70001602      -8.70001602      -8.70001602      -8.70001602      -8.70001602      -8.70001602      -8.70001602      -8.70001602      -8.70001602      -8.70001602      -8.70001602      -8.70001602      -8.70001602      -8.70001602      -8.70001602
          -8.70001602      -8.70001602      -8.70001602      -8.70001602      -8.70001602      -8.70001602      -8.70001602      -8.70001602      -8.70001602      -8.70001602      -8.70001602      -8.70001602      -8.70001602      -8.70001602      -8.70001602      -8.70001602      -8.70001602      -8.70001602      -8.70001602      -8.70001602
          -8.70001602      -8.70001602      -8.70001602      -8.70001602      -8.70001602      -8.70001602      -8.70001602      -8.70001602      -8.70001602      -8.70001602      -8.70001602      -8.70001602      -8.70001602      -8.70001602      -8.70001602      -8.70001602      -8.70001602      -8.70001602      -8.70001602      -8.70001602
          -8.70001602      -8.70001602      -8.70001602      -8.70001602      -8.70001602      -8.70001602      -8.70001602      -8.70001602      -8.70001602      -8.70001602      -8.70001602      -8.70001602      -8.70001602      -8.70001602      -8.70001602      -8.70001602      -8.70001602      -8.70001602      -8.70001602      -8.70001602
          -8.70001602      -8.70001602      -8.70001602      -8.70001602      -8.70001602      -8.70001602      -8.70001602      -8.70001602      -8.70001602      -8.70001602      -8.70001602      -8.70001602      -8.70001602      -8.70001602      -8.70001602      -8.70001602      -8.70001602      -8.70001602      -8.70001602      -8.70001602
          -8.70001602      -8.70001602      -8.70001602      -8.70001602      -8.70001602      -8.70001602      -8.70001602      -8.70001602      -8.70001602      -8.70001602      -8.70001602      -8.70001602      -8.70001602      -8.70001602      -8.70001602      -8.70001602      -8.70001602      -8.70001602      -8.70001602      -8.70001602
          -8.70001602      -8.70001602      -8.70001602      -8.70001602      -8.70001602      -8.70001602      -8.70001602      -8.70001602      -8.70001602      -8.70001602      -8.70001602      -8.70001602      -8.70001602      -8.70001602      -8.70001602      -8.70001602      -8.70001602      -8.70001602      -8.70001602      -8.70001602
          -8.70001602      -8.70001602      -8.70001602      -8.70001602      -8.70001602      -8.70001602      -8.70001602      -8.70001602      -8.70001602      -8.70001602      -8.70001602      -8.70001602      -8.70001602      -8.70001602      -8.70001602      -8.70001602      -8.70001602      -8.70001602      -8.70001602      -8.70001602
          -8.70001602      -8.70001602      -8.70001602      -8.70001602      -8.70001602      -8.70001602      -8.70001602      -8.70001602      -8.70001602      -8.70001602      -8.70001602      -8.70001602      -8.70001602      -8.70001602      -8.70001602      -8.70001602      -8.70001602      -8.70001602      -8.70001602      -8.70001602
    INTERNAL  FACTOR  1.0
          -9.75001335      -9.75001335      -9.75001335      -9.75001335      -9.75001335      -9.75001335      -9.75001335      -9.75001335      -9.75001335      -9.75001335      -9.75001335      -9.75001335      -9.75001335      -9.75001335      -9.75001335      -9.75001335      -9.75001335      -9.75001335      -9.75001335      -9.75001335
          -9.75001335      -9.75001335      -9.75001335      -9.75001335      -9.75001335      -9.75001335      -9.75001335      -9.75001335      -9.75001335      -9.75001335      -9.75001335      -9.75001335      -9.75001335      -9.75001335      -9.75001335      -9.75001335      -9.75001335      -9.75001335      -9.75001335      -9.75001335
          -9.75001335      -9.75001335      -9.75001335      -9.75001335      -9.75001335      -9.75001335      -9.75001335      -9.75001335      -9.75001335      -9.75001335      -9.75001335      -9.75001335      -9.75001335      -9.75001335      -9.75001335      -9.75001335      -9.75001335      -9.75001335      -9.75001335      -9.75001335
          -9.75001335      -9.75001335      -9.75001335      -9.75001335      -9.75001335      -9.75001335      -9.75001335      -9.75001335      -9.75001335      -9.75001335      -9.75001335      -9.75001335      -9.75001335      -9.75001335      -9.75001335      -9.75001335      -9.75001335      -9.75001335      -9.75001335      -9.75001335
          -9.75001335      -9.75001335      -9.75001335      -9.75001335      -9.75001335      -9.75001335      -9.75001335      -9.75001335      -9.75001335      -9.75001335      -9.75001335      -9.75001335      -9.75001335      -9.75001335      -9.75001335      -9.75001335      -9.75001335      -9.75001335      -9.75001335      -9.75001335
          -9.75001335      -9.75001335      -9.75001335      -9.75001335      -9.75001335      -9.75001335      -9.75001335      -9.75001335      -9.75001335      -9.75001335      -9.75001335      -9.75001335      -9.75001335      -9.75001335      -9.75001335      -9.75001335      -9.75001335      -9.75001335      -9.75001335      -9.75001335
          -9.75001335      -9.75001335      -9.75001335      -9.75001335      -9.75001335      -9.75001335      -9.75001335      -9.75001335      -9.75001335      -9.75001335      -9.75001335      -9.75001335      -9.75001335      -9.75001335      -9.75001335      -9.75001335      -9.75001335      -9.75001335      -9.75001335      -9.75001335
          -9.75001335      -9.75001335      -9.75001335      -9.75001335      -9.75001335      -9.75001335      -9.75001335      -9.75001335      -9.75001335      -9.75001335      -9.75001335      -9.75001335      -9.75001335      -9.75001335      -9.75001335      -9.75001335      -9.75001335      -9.75001335      -9.75001335      -9.75001335
          -9.75001335      -9.75001335      -9.75001335      -9.75001335      -9.75001335      -9.75001335      -9.75001335      -9.75001335      -9.75001335      -9.75001335      -9.75001335      -9.75001335      -9.75001335      -9.75001335      -9.75001335      -9.75001335      -9.75001335      -9.75001335      -9.75001335      -9.75001335
          -9.75001335      -9.75001335      -9.75001335      -9.75001335      -9.75001335      -9.75001335      -9.75001335      -9.75001335      -9.75001335      -9.75001335      -9.75001335      -9.75001335      -9.75001335      -9.75001335      -9.75001335      -9.75001335      -9.75001335      -9.75001335      -9.75001335      -9.75001335
    INTERNAL  FACTOR  1.0
         -10.80001068     -10.80001068     -10.80001068     -10.80001068     -10.80001068     -10.80001068     -10.80001068     -10.80001068     -10.80001068     -10.80001068     -10.80001068     -10.80001068     -10.80001068     -10.80001068     -10.80001068     -10.80001068     -10.80001068     -10.80001068     -10.80001068     -10.80001068
         -10.80001068     -10.80001068     -10.80001068     -10.80001068     -10.80001068     -10.80001068     -10.80001068     -10.80001068     -10.80001068     -10.80001068     -10.80001068     -10.80001068     -10.80001068     -10.80001068     -10.80001068     -10.80001068     -10.80001068     -10.80001068     -10.80001068     -10.80001068
         -10.80001068     -10.80001068     -10.80001068     -10.80001068     -10.80001068     -10.80001068     -10.80001068     -10.80001068     -10.80001068     -10.80001068     -10.80001068     -10.80001068     -10.80001068     -10.80001068     -10.80001068     -10.80001068     -10.80001068     -10.80001068     -10.80001068     -10.80001068
         -10.80001068     -10.80001068     -10.80001068     -10.80001068     -10.80001068     -10.80001068     -10.80001068     -10.80001068     -10.80001068     -10.80001068     -10.80001068     -10.80001068     -10.80001068     -10.80001068     -10.80001068     -10.80001068     -10.80001068     -10.80001068     -10.80001068     -10.80001068
         -10.80001068     -10.80001068     -10.80001068     -10.80001068     -10.80001068     -10.80001068     -10.80001068     -10.80001068     -10.80001068     -10.80001068     -10.80001068     -10.80001068     -10.80001068     -10.80001068     -10.80001068     -10.80001068     -10.80001068     -10.80001068     -10.80001068     -10.80001068
         -10.80001068     -10.80001068     -10.80001068     -10.80001068     -10.80001068     -10.80001068     -10.80001068     -10.80001068     -10.80001068     -10.80001068     -10.80001068     -10.80001068     -10.80001068     -10.80001068     -10.80001068     -10.80001068     -10.80001068     -10.80001068     -10.80001068     -10.80001068
         -10.80001068     -10.80001068     -10.80001068     -10.80001068     -10.80001068     -10.80001068     -10.80001068     -10.80001068     -10.80001068     -10.80001068     -10.80001068     -10.80001068     -10.80001068     -10.80001068     -10.80001068     -10.80001068     -10.80001068     -10.80001068     -10.80001068     -10.80001068
         -10.80001068     -10.80001068     -10.80001068     -10.80001068     -10.80001068     -10.80001068     -10.80001068     -10.80001068     -10.80001068     -10.80001068     -10.80001068     -10.80001068     -10.80001068     -10.80001068     -10.80001068     -10.80001068     -10.80001068     -10.80001068     -10.80001068     -10.80001068
         -10.80001068     -10.80001068     -10.80001068     -10.80001068     -10.80001068     -10.80001068     -10.80001068     -10.80001068     -10.80001068     -10.80001068     -10.80001068     -10.80001068     -10.80001068     -10.80001068     -10.80001068     -10.80001068     -10.80001068     -10.80001068     -10.80001068     -10.80001068
         -10.80001068     -10.80001068     -10.80001068     -10.80001068     -10.80001068     -10.80001068     -10.80001068     -10.80001068     -10.80001068     -10.80001068     -10.80001068     -10.80001068     -10.80001068     -10.80001068     -10.80001068     -10.80001068     -10.80001068     -10.80001068     -10.80001068     -10.80001068
    INTERNAL  FACTOR  1.0
         -11.85000801     -11.85000801     -11.85000801     -11.85000801     -11.85000801     -11.85000801     -11.85000801     -11.85000801     -11.85000801     -11.85000801     -11.85000801     -11.85000801     -11.85000801     -11.85000801     -11.85000801     -11.85000801     -11.85000801     -11.85000801     -11.85000801     -11.85000801
         -11.85000801     -11.85000801     -11.85000801     -11.85000801     -11.85000801     -11.85000801     -11.85000801     -11.85000801     -11.85000801     -11.85000801     -11.85000801     -11.85000801     -11.85000801     -11.85000801     -11.85000801     -11.85000801     -11.85000801     -11.85000801     -11.85000801     -11.85000801
         -11.85000801     -11.85000801     -11.85000801     -11.85000801     -11.85000801     -11.85000801     -11.85000801     -11.85000801     -11.85000801     -11.85000801     -11.85000801     -11.85000801     -11.85000801     -11.85000801     -11.85000801     -11.85000801     -11.85000801     -11.85000801     -11.85000801     -11.85000801
         -11.85000801     -11.85000801     -11.85000801     -11.85000801     -11.85000801     -11.85000801     -11.85000801     -11.85000801     -11.85000801     -11.85000801     -11.85000801     -11.85000801     -11.85000801     -11.85000801     -11.85000801     -11.85000801     -11.85000801     -11.85000801     -11.85000801     -11.85000801
         -11.85000801     -11.85000801     -11.85000801     -11.85000801     -11.85000801     -11.85000801     -11.85000801     -11.85000801     -11.85000801     -11.85000801     -11.85000801     -11.85000801     -11.85000801     -11.85000801     -11.85000801     -11.85000801     -11.85000801     -11.85000801     -11.85000801     -11.85000801
         -11.85000801     -11.85000801     -11.85000801     -11.85000801     -11.85000801     -11.85000801     -11.85000801     -11.85000801     -11.85000801     -11.85000801     -11.85000801     -11.85000801     -11.85000801     -11.85000801     -11.85000801     -11.85000801     -11.85000801     -11.85000801     -11.85000801     -11.85000801
         -11.85000801     -11.85000801     -11.85000801     -11.85000801     -11.85000801     -11.85000801     -11.85000801     -11.85000801     -11.85000801     -11.85000801     -11.85000801     -11.85000801     -11.85000801     -11.85000801     -11.85000801     -11.85000801     -11.85000801     -11.85000801     -11.85000801     -11.85000801
         -11.85000801     -11.85000801     -11.85000801     -11.85000801     -11.85000801     -11.85000801     -11.85000801     -11.85000801     -11.85000801     -11.85000801     -11.85000801     -11.85000801     -11.85000801     -11.85000801     -11.85000801     -11.85000801     -11.85000801     -11.85000801     -11.85000801     -11.85000801
         -11.85000801     -11.85000801     -11.85000801     -11.85000801     -11.85000801     -11.85000801     -11.85000801     -11.85000801     -11.85000801     -11.85000801     -11.85000801     -11.85000801     -11.85000801     -11.85000801     -11.85000801     -11.85000801     -11.85000801     -11.85000801     -11.85000801     -11.85000801
         -11.85000801     -11.85000801     -11.85000801     -11.85000801     -11.85000801     -11.85000801     -11.85000801     -11.85000801     -11.85000801     -11.85000801     -11.85000801     -11.85000801     -11.85000801     -11.85000801     -11.85000801     -11.85000801     -11.85000801     -11.85000801     -11.85000801     -11.85000801
    INTERNAL  FACTOR  1.0
         -12.90000534     -12.90000534     -12.90000534     -12.90000534     -12.90000534     -12.90000534     -12.90000534     -12.90000534     -12.90000534     -12.90000534     -12.90000534     -12.90000534     -12.90000534     -12.90000534     -12.90000534     -12.90000534     -12.90000534     -12.90000534     -12.90000534     -12.90000534
         -12.90000534     -12.90000534     -12.90000534     -12.90000534     -12.90000534     -12.90000534     -12.90000534     -12.90000534     -12.90000534     -12.90000534     -12.90000534     -12.90000534     -12.90000534     -12.90000534     -12.90000534     -12.90000534     -12.90000534     -12.90000534     -12.90000534     -12.90000534
         -12.90000534     -12.90000534     -12.90000534     -12.90000534     -12.90000534     -12.90000534     -12.90000534     -12.90000534     -12.90000534     -12.90000534     -12.90000534     -12.90000534     -12.90000534     -12.90000534     -12.90000534     -12.90000534     -12.90000534     -12.90000534     -12.90000534     -12.90000534
         -12.90000534     -12.90000534     -12.90000534     -12.90000534     -12.90000534     -12.90000534     -12.90000534     -12.90000534     -12.90000534     -12.90000534     -12.90000534     -12.90000534     -12.90000534     -12.90000534     -12.90000534     -12.90000534     -12.90000534     -12.90000534     -12.90000534     -12.90000534
         -12.90000534     -12.90000534     -12.90000534     -12.90000534     -12.90000534     -12.90000534     -12.90000534     -12.90000534     -12.90000534     -12.90000534     -12.90000534     -12.90000534     -12.90000534     -12.90000534     -12.90000534     -12.90000534     -12.90000534     -12.90000534     -12.90000534     -12.90000534