# MPSIM package for MODPATH 7 generated by Flopy 3.9.2
test_mp_forward.mpnam
test_mp_forward.mplst
4 2 1 1 0 0
test_mp_forward.mpend
test_mp_forward.mppth
test_mp_forward.timeseries
0
1
0
2
1
100 0.01
1
1
11
PG1
1
0.0
INTERNAL
1
1
1 0
         4         6        14       0.8926115       0.1919452       0.6702292               0         0
PG1
1
0.0
INTERNAL
1
1
1 0
         3         4        18      0.07006612        0.852195       0.4679313               0         0
PG1
1
0.0
INTERNAL
1
1
1 0
         6         8        10       0.5250077       0.0445225         0.34965               0         0
PG1
1
0.0
INTERNAL
1
1
1 0
         4         2        13       0.6911032       0.7811744       0.1539329               0         0
PG1
1
0.0
INTERNAL
1
1
1 0
         3        10        12      0.06125219       0.2738759      0.03044241               0         0
PG1
1
0.0
INTERNAL
1
1
1 0
         3         4        11       0.4911662       0.7046751       0.1171927               0         0
PG1
1
0.0
INTERNAL
1
1
1 0
         7         6        12        0.475107        0.173048       0.2621236               0         0
PG1
1
0.0
INTERNAL
1
1
1 0
         7         5        14       0.1439695       0.5868983      0.04312576               0         0
PG1
1
0.0
INTERNAL
1
1
1 0
         7         9        14       0.6804212       0.4038694       0.6658685               0         0
PG1
1
0.0
INTERNAL
1
1
1 0
         3         9        16       0.1685563       0.9810149      0.03879173               0         0
PG1
1
0.0
INTERNAL
1
1
1 0
         5         1        17       0.2571429             0.5       0.7143003               0         0
