# # MPBAS package for MODPATH 7 generated by Flopy 3.9.2
0                   # DEFAULTIFACECOUNT
CONSTANT    3.000000E-01                           #porosity layer 1              
CONSTANT    3.000000E-01                           #porosity layer 2              
CONSTANT    3.000000E-01                           #porosity layer 3              
CONSTANT    3.000000E-01                           #porosity layer 4              
CONSTANT    3.000000E-01                           #porosity layer 5              
CONSTANT    3.000000E-01                           #porosity layer 6              
CONSTANT    3.000000E-01                           #porosity layer 7              
CONSTANT    3.000000E-01                           #porosity layer 8              
CONSTANT    3.000000E-01                           #porosity layer 9              
CONSTANT    3.000000E-01                           #porosity layer 10             
