MODPATH_TIMESERIES_FILE         7         2
    2   0.0000000000E+00  0.0000000000E+00  0.0000000000E+00  0.0000000000E+00
END HEADER
       0       1  0.0000000000E+00         1    1         1     14200  0.3120701000E+00  0.6718080000E+00  0.3458022000E+00  0.1458724206E+03  0.4401542400E+02 -0.7996277153E+01        12
       0       1  0.0000000000E+00         2    2         1     10215  0.8726157000E+00  0.9826825000E+00  0.1377594000E+00  0.1792356942E+03  0.7194804750E+02 -0.7158692125E+01         9
       0       1  0.0000000000E+00         3    3         1     24237  0.6687635000E+00  0.1558287000E+00  0.2237750000E+00  0.1000125810E+03  0.2146748610E+02 -0.1043287911E+02        20
       0       1  0.0000000000E+00         4    4         1     16088  0.2094305000E+00  0.7341103000E+00  0.5387650000E+00  0.1332565830E+03  0.9220233090E+02 -0.8538386929E+01        14
       0       1  0.0000000000E+00         5    5         1     13460  0.3571913000E+00  0.9585658000E+00  0.6065484000E+00  0.1161431478E+03  0.2875697400E+01 -0.7618054251E+01        11
       0       1  0.0000000000E+00         6    6         1     12654  0.3595409000E+00  0.4663629000E+00  0.9101744000E+00  0.1101572454E+03  0.7039908870E+02 -0.7526966682E+01        11
       0       1  0.0000000000E+00         7    7         1     28896  0.8143721000E-01  0.6056681000E+00  0.4174325000E+00  0.1204886233E+03  0.4381700430E+02 -0.1157477896E+02        24
       0       1  0.0000000000E+00         8    8         1     29949  0.1946662000E-02  0.5541440000E+00  0.6509401000E+00  0.1380116800E+03  0.5866243200E+02 -0.1180472609E+02        25
       0       1  0.0000000000E+00         9    9         1     28024  0.9407370000E+00  0.9135429000E+00  0.8305396000E+00  0.1436444220E+03  0.1474062870E+02 -0.1115084791E+02        23
       0       1  0.0000000000E+00        10   10         1     13257  0.5449734000E+00  0.9335521000E+00  0.6357710000E+00  0.1592698404E+03  0.2080065630E+02 -0.7609287493E+01        11
       0       1  0.0000000000E+00        11   11         1     17214  0.4500000000E+00  0.2500000000E+00  0.5086276000E-04  0.1707000000E+03  0.9975000000E+02 -0.9000000001E+01        15
       1       1  0.1000000000E-01         1    1         1     14200  0.3120701000E+00  0.6718080000E+00  0.3458021961E+00  0.1458724206E+03  0.4401542400E+02 -0.7996277154E+01        12
       1       1  0.1000000000E-01         2    2         1     10215  0.8726156999E+00  0.9826824999E+00  0.1377594053E+00  0.1792356942E+03  0.7194804750E+02 -0.7158692123E+01         9
       1       1  0.1000000000E-01         3    3         1     24237  0.6687634651E+00  0.1558286894E+00  0.2237750213E+00  0.1000125808E+03  0.2146748607E+02 -0.1043287911E+02        20
       1       1  0.1000000000E-01         4    4         1     16088  0.2094304993E+00  0.7341103012E+00  0.5387649972E+00  0.1332565830E+03  0.9220233090E+02 -0.8538386930E+01        14
       1       1  0.1000000000E-01         5    5         1     13460  0.3571912998E+00  0.9585657998E+00  0.6065483915E+00  0.1161431478E+03  0.2875697399E+01 -0.7618054254E+01        11
       1       1  0.1000000000E-01         6    6         1     12654  0.3595408999E+00  0.4663629003E+00  0.9101743777E+00  0.1101572454E+03  0.7039908870E+02 -0.7526966688E+01        11
       1       1  0.1000000000E-01         7    7         1     28896  0.8143721000E-01  0.6056681000E+00  0.4174325000E+00  0.1204886233E+03  0.4381700430E+02 -0.1157477896E+02        24
       1       1  0.1000000000E-01         8    8         1     29949  0.1946662000E-02  0.5541440000E+00  0.6509401000E+00  0.1380116800E+03  0.5866243200E+02 -0.1180472609E+02        25
       1       1  0.1000000000E-01         9    9         1     28024  0.9407370000E+00  0.9135429000E+00  0.8305396000E+00  0.1436444220E+03  0.1474062870E+02 -0.1115084791E+02        23
       1       1  0.1000000000E-01        10   10         1     13257  0.5449733997E+00  0.9335521001E+00  0.6357709813E+00  0.1592698404E+03  0.2080065630E+02 -0.7609287499E+01        11
       1       1  0.1000000000E-01        11   11         1     17214  0.4500000000E+00  0.2500000001E+00  0.5086550932E-04  0.1707000000E+03  0.9975000000E+02 -0.9000000000E+01        15
       2       1  0.2000000000E-01         1    1         1     14200  0.3120701000E+00  0.6718079999E+00  0.3458021921E+00  0.1458724206E+03  0.4401542400E+02 -0.7996277155E+01        12
       2       1  0.2000000000E-01         2    2         1     10215  0.8726156998E+00  0.9826824999E+00  0.1377594105E+00  0.1792356942E+03  0.7194804750E+02 -0.7158692122E+01         9
       2       1  0.2000000000E-01         3    3         1     24237  0.6687634301E+00  0.1558286788E+00  0.2237750426E+00  0.1000125806E+03  0.2146748604E+02 -0.1043287910E+02        20
       2       1  0.2000000000E-01         4    4         1     16088  0.2094304985E+00  0.7341103024E+00  0.5387649944E+00  0.1332565830E+03  0.9220233091E+02 -0.8538386931E+01        14
       2       1  0.2000000000E-01         5    5         1     13460  0.3571912995E+00  0.9585657996E+00  0.6065483830E+00  0.1161431478E+03  0.2875697399E+01 -0.7618054256E+01        11
       2       1  0.2000000000E-01         6    6         1     12654  0.3595408998E+00  0.4663629006E+00  0.9101743554E+00  0.1101572454E+03  0.7039908870E+02 -0.7526966695E+01        11
       2       1  0.2000000000E-01         7    7         1     28896  0.8143721000E-01  0.6056681000E+00  0.4174325000E+00  0.1204886233E+03  0.4381700430E+02 -0.1157477896E+02        24
       2       1  0.2000000000E-01         8    8         1     29949  0.1946662000E-02  0.5541440000E+00  0.6509401000E+00  0.1380116800E+03  0.5866243200E+02 -0.1180472609E+02        25
       2       1  0.2000000000E-01         9    9         1     28024  0.9407370000E+00  0.9135429000E+00  0.8305396000E+00  0.1436444220E+03  0.1474062870E+02 -0.1115084791E+02        23
       2       1  0.2000000000E-01        10   10         1     13257  0.5449733994E+00  0.9335521003E+00  0.6357709625E+00  0.1592698404E+03  0.2080065630E+02 -0.7609287504E+01        11
       2       1  0.2000000000E-01        11   11         1     17214  0.4500000000E+00  0.2500000002E+00  0.5086825864E-04  0.1707000000E+03  0.9975000000E+02 -0.9000000000E+01        15
       3       1  0.3000000000E-01         1    1         1     14200  0.3120700999E+00  0.6718079999E+00  0.3458021882E+00  0.1458724206E+03  0.4401542400E+02 -0.7996277156E+01        12
       3       1  0.3000000000E-01         2    2         1     10215  0.8726156997E+00  0.9826824998E+00  0.1377594158E+00  0.1792356942E+03  0.7194804750E+02 -0.7158692120E+01         9
       3       1  0.3000000000E-01         3    3         1     24237  0.6687633952E+00  0.1558286682E+00  0.2237750639E+00  0.1000125804E+03  0.2146748600E+02 -0.1043287909E+02        20
       3       1  0.3000000000E-01         4    4         1     16088  0.2094304978E+00  0.7341103035E+00  0.5387649916E+00  0.1332565830E+03  0.9220233091E+02 -0.8538386932E+01        14
       3       1  0.3000000000E-01         5    5         1     13460  0.3571912993E+00  0.9585657993E+00  0.6065483745E+00  0.1161431478E+03  0.2875697398E+01 -0.7618054259E+01        11
       3       1  0.3000000000E-01         6    6         1     12654  0.3595408996E+00  0.4663629008E+00  0.9101743332E+00  0.1101572454E+03  0.7039908870E+02 -0.7526966702E+01        11
       3       1  0.3000000000E-01         7    7         1     28896  0.8143721000E-01  0.6056681000E+00  0.4174325000E+00  0.1204886233E+03  0.4381700430E+02 -0.1157477896E+02        24
       3       1  0.3000000000E-01         8    8         1     29949  0.1946662000E-02  0.5541440000E+00  0.6509401000E+00  0.1380116800E+03  0.5866243200E+02 -0.1180472609E+02        25
       3       1  0.3000000000E-01         9    9         1     28024  0.9407370000E+00  0.9135429000E+00  0.8305396000E+00  0.1436444220E+03  0.1474062870E+02 -0.1115084791E+02        23
       3       1  0.3000000000E-01        10   10         1     13257  0.5449733991E+00  0.9335521004E+00  0.6357709438E+00  0.1592698404E+03  0.2080065630E+02 -0.7609287510E+01        11
       3       1  0.3000000000E-01        11   11         1     17214  0.4499999999E+00  0.2500000003E+00  0.5087100797E-04  0.1707000000E+03  0.9975000000E+02 -0.8999999999E+01        15
       4       1  0.4000000000E-01         1    1         1     14200  0.3120700999E+00  0.6718079998E+00  0.3458021843E+00  0.1458724206E+03  0.4401542400E+02 -0.7996277158E+01        12
       4       1  0.4000000000E-01         2    2         1     10215  0.8726156996E+00  0.9826824998E+00  0.1377594210E+00  0.1792356942E+03  0.7194804750E+02 -0.7158692118E+01         9
       4       1  0.4000000000E-01         3    3         1     24237  0.6687633602E+00  0.1558286576E+00  0.2237750852E+00  0.1000125802E+03  0.2146748597E+02 -0.1043287909E+02        20
       4       1  0.4000000000E-01         4    4         1     16088  0.2094304971E+00  0.7341103047E+00  0.5387649888E+00  0.1332565830E+03  0.9220233091E+02 -0.8538386933E+01        14
       4       1  0.4000000000E-01         5    5         1     13460  0.3571912991E+00  0.9585657991E+00  0.6065483660E+00  0.1161431478E+03  0.2875697397E+01 -0.7618054261E+01        11
       4       1  0.4000000000E-01         6    6         1     12654  0.3595408995E+00  0.4663629011E+00  0.9101743109E+00  0.1101572454E+03  0.7039908870E+02 -0.7526966708E+01        11
       4       1  0.4000000000E-01         7    7         1     28896  0.8143721000E-01  0.6056681000E+00  0.4174325000E+00  0.1204886233E+03  0.4381700430E+02 -0.1157477896E+02        24
       4       1  0.4000000000E-01         8    8         1     29949  0.1946662000E-02  0.5541440000E+00  0.6509401000E+00  0.1380116800E+03  0.5866243200E+02 -0.1180472609E+02        25
       4       1  0.4000000000E-01         9    9         1     28024  0.9407370000E+00  0.9135429000E+00  0.8305396000E+00  0.1436444220E+03  0.1474062870E+02 -0.1115084791E+02        23
       4       1  0.4000000000E-01        10   10         1     13257  0.5449733987E+00  0.9335521005E+00  0.6357709251E+00  0.1592698404E+03  0.2080065630E+02 -0.7609287516E+01        11
       4       1  0.4000000000E-01        11   11         1     17214  0.4499999999E+00  0.2500000003E+00  0.5087375729E-04  0.1707000000E+03  0.9975000000E+02 -0.8999999998E+01        15
       5       1  0.5000000000E-01         1    1         1     14200  0.3120700999E+00  0.6718079998E+00  0.3458021803E+00  0.1458724206E+03  0.4401542400E+02 -0.7996277159E+01        12
       5       1  0.5000000000E-01         2    2         1     10215  0.8726156995E+00  0.9826824997E+00  0.1377594263E+00  0.1792356942E+03  0.7194804750E+02 -0.7158692117E+01         9
       5       1  0.5000000000E-01         3    3         1     24237  0.6687633253E+00  0.1558286470E+00  0.2237751064E+00  0.1000125800E+03  0.2146748594E+02 -0.1043287908E+02        20
       5       1  0.5000000000E-01         4    4         1     16088  0.2094304963E+00  0.7341103059E+00  0.5387649859E+00  0.1332565830E+03  0.9220233092E+02 -0.8538386934E+01        14
       5       1  0.5000000000E-01         5    5         1     13460  0.3571912988E+00  0.9585657989E+00  0.6065483575E+00  0.1161431478E+03  0.2875697397E+01 -0.7618054264E+01        11
       5       1  0.5000000000E-01         6    6         1     12654  0.3595408994E+00  0.4663629014E+00  0.9101742886E+00  0.1101572454E+03  0.7039908870E+02 -0.7526966715E+01        11
       5       1  0.5000000000E-01         7    7         1     28896  0.8143721000E-01  0.6056681000E+00  0.4174325000E+00  0.1204886233E+03  0.4381700430E+02 -0.1157477896E+02        24
       5       1  0.5000000000E-01         8    8         1     29949  0.1946662000E-02  0.5541440000E+00  0.6509401000E+00  0.1380116800E+03  0.5866243200E+02 -0.1180472609E+02        25
       5       1  0.5000000000E-01         9    9         1     28024  0.9407370000E+00  0.9135429000E+00  0.8305396000E+00  0.1436444220E+03  0.1474062870E+02 -0.1115084791E+02        23
       5       1  0.5000000000E-01        10   10         1     13257  0.5449733984E+00  0.9335521007E+00  0.6357709064E+00  0.1592698404E+03  0.2080065630E+02 -0.7609287521E+01        11
       5       1  0.5000000000E-01        11   11         1     17214  0.4499999999E+00  0.2500000004E+00  0.5087650661E-04  0.1707000000E+03  0.9975000000E+02 -0.8999999997E+01        15
       6       1  0.6000000000E-01         1    1         1     14200  0.3120700999E+00  0.6718079997E+00  0.3458021764E+00  0.1458724206E+03  0.4401542400E+02 -0.7996277160E+01        12
       6       1  0.6000000000E-01         2    2         1     10215  0.8726156994E+00  0.9826824997E+00  0.1377594316E+00  0.1792356942E+03  0.7194804750E+02 -0.7158692115E+01         9
       6       1  0.6000000000E-01         3    3         1     24237  0.6687632904E+00  0.1558286364E+00  0.2237751277E+00  0.1000125797E+03  0.2146748591E+02 -0.1043287907E+02        20
       6       1  0.6000000000E-01         4    4         1     16088  0.2094304956E+00  0.7341103071E+00  0.5387649831E+00  0.1332565830E+03  0.9220233092E+02 -0.8538386935E+01        14
       6       1  0.6000000000E-01         5    5         1     13460  0.3571912986E+00  0.9585657987E+00  0.6065483490E+00  0.1161431478E+03  0.2875697396E+01 -0.7618054266E+01        11
       6       1  0.6000000000E-01         6    6         1     12654  0.3595408993E+00  0.4663629017E+00  0.9101742663E+00  0.1101572454E+03  0.7039908871E+02 -0.7526966722E+01        11
       6       1  0.6000000000E-01         7    7         1     28896  0.8143721000E-01  0.6056681000E+00  0.4174325000E+00  0.1204886233E+03  0.4381700430E+02 -0.1157477896E+02        24
       6       1  0.6000000000E-01         8    8         1     29949  0.1946662000E-02  0.5541440000E+00  0.6509401000E+00  0.1380116800E+03  0.5866243200E+02 -0.1180472609E+02        25
       6       1  0.6000000000E-01         9    9         1     28024  0.9407370000E+00  0.9135429000E+00  0.8305396000E+00  0.1436444220E+03  0.1474062870E+02 -0.1115084791E+02        23
       6       1  0.6000000000E-01        10   10         1     13257  0.5449733981E+00  0.9335521008E+00  0.6357708876E+00  0.1592698404E+03  0.2080065630E+02 -0.7609287527E+01        11
       6       1  0.6000000000E-01        11   11         1     17214  0.4499999999E+00  0.2500000005E+00  0.5087925593E-04  0.1707000000E+03  0.9975000000E+02 -0.8999999996E+01        15
       7       1  0.7000000000E-01         1    1         1     14200  0.3120700999E+00  0.6718079997E+00  0.3458021725E+00  0.1458724206E+03  0.4401542400E+02 -0.7996277161E+01        12
       7       1  0.7000000000E-01         2    2         1     10215  0.8726156993E+00  0.9826824996E+00  0.1377594368E+00  0.1792356942E+03  0.7194804750E+02 -0.7158692114E+01         9
       7       1  0.7000000000E-01         3    3         1     24237  0.6687632554E+00  0.1558286259E+00  0.2237751490E+00  0.1000125795E+03  0.2146748588E+02 -0.1043287907E+02        20
       7       1  0.7000000000E-01         4    4         1     16088  0.2094304948E+00  0.7341103083E+00  0.5387649803E+00  0.1332565830E+03  0.9220233092E+02 -0.8538386935E+01        14
       7       1  0.7000000000E-01         5    5         1     13460  0.3571912983E+00  0.9585657984E+00  0.6065483405E+00  0.1161431478E+03  0.2875697395E+01 -0.7618054269E+01        11
       7       1  0.7000000000E-01         6    6         1     12654  0.3595408992E+00  0.4663629020E+00  0.9101742441E+00  0.1101572454E+03  0.7039908871E+02 -0.7526966729E+01        11
       7       1  0.7000000000E-01         7    7         1     28896  0.8143721000E-01  0.6056681000E+00  0.4174325000E+00  0.1204886233E+03  0.4381700430E+02 -0.1157477896E+02        24
       7       1  0.7000000000E-01         8    8         1     29949  0.1946661999E-02  0.5541440000E+00  0.6509401000E+00  0.1380116800E+03  0.5866243200E+02 -0.1180472609E+02        25
       7       1  0.7000000000E-01         9    9         1     28024  0.9407370000E+00  0.9135429000E+00  0.8305396000E+00  0.1436444220E+03  0.1474062870E+02 -0.1115084791E+02        23
       7       1  0.7000000000E-01        10   10         1     13257  0.5449733978E+00  0.9335521009E+00  0.6357708689E+00  0.1592698404E+03  0.2080065630E+02 -0.7609287533E+01        11
       7       1  0.7000000000E-01        11   11         1     17214  0.4499999999E+00  0.2500000006E+00  0.5088200525E-04  0.1707000000E+03  0.9975000000E+02 -0.8999999995E+01        15
       8       1  0.8000000000E-01         1    1         1     14200  0.3120700998E+00  0.6718079996E+00  0.3458021685E+00  0.1458724206E+03  0.4401542400E+02 -0.7996277162E+01        12
       8       1  0.8000000000E-01         2    2         1     10215  0.8726156992E+00  0.9826824996E+00  0.1377594421E+00  0.1792356942E+03  0.7194804750E+02 -0.7158692112E+01         9
       8       1  0.8000000000E-01         3    3         1     24237  0.6687632205E+00  0.1558286153E+00  0.2237751703E+00  0.1000125793E+03  0.2146748585E+02 -0.1043287906E+02        20
       8       1  0.8000000000E-01         4    4         1     16088  0.2094304941E+00  0.7341103094E+00  0.5387649775E+00  0.1332565830E+03  0.9220233093E+02 -0.8538386936E+01        14
       8       1  0.8000000000E-01         5    5         1     13460  0.3571912981E+00  0.9585657982E+00  0.6065483320E+00  0.1161431478E+03  0.2875697395E+01 -0.7618054271E+01        11
       8       1  0.8000000000E-01         6    6         1     12654  0.3595408991E+00  0.4663629022E+00  0.9101742218E+00  0.1101572454E+03  0.7039908871E+02 -0.7526966735E+01        11
       8       1  0.8000000000E-01         7    7         1     28896  0.8143721000E-01  0.6056681000E+00  0.4174325000E+00  0.1204886233E+03  0.4381700430E+02 -0.1157477896E+02        24
       8       1  0.8000000000E-01         8    8         1     29949  0.1946661999E-02  0.5541440000E+00  0.6509401000E+00  0.1380116800E+03  0.5866243200E+02 -0.1180472609E+02        25
       8       1  0.8000000000E-01         9    9         1     28024  0.9407370000E+00  0.9135429000E+00  0.8305396000E+00  0.1436444220E+03  0.1474062870E+02 -0.1115084791E+02        23
       8       1  0.8000000000E-01        10   10         1     13257  0.5449733975E+00  0.9335521011E+00  0.6357708502E+00  0.1592698404E+03  0.2080065630E+02 -0.7609287538E+01        11
       8       1  0.8000000000E-01        11   11         1     17214  0.4499999998E+00  0.2500000007E+00  0.5088475457E-04  0.1707000000E+03  0.9975000000E+02 -0.8999999995E+01        15
       9       1  0.9000000000E-01         1    1         1     14200  0.3120700998E+00  0.6718079996E+00  0.3458021646E+00  0.1458724206E+03  0.4401542400E+02 -0.7996277163E+01        12
       9       1  0.9000000000E-01         2    2         1     10215  0.8726156991E+00  0.9826824995E+00  0.1377594473E+00  0.1792356942E+03  0.7194804750E+02 -0.7158692110E+01         9
       9       1  0.9000000000E-01         3    3         1     24237  0.6687631855E+00  0.1558286047E+00  0.2237751916E+00  0.1000125791E+03  0.2146748581E+02 -0.1043287905E+02        20
       9       1  0.9000000000E-01         4    4         1     16088  0.2094304934E+00  0.7341103106E+00  0.5387649747E+00  0.1332565830E+03  0.9220233093E+02 -0.8538386937E+01        14
       9       1  0.9000000000E-01         5    5         1     13460  0.3571912979E+00  0.9585657980E+00  0.6065483235E+00  0.1161431478E+03  0.2875697394E+01 -0.7618054274E+01        11
       9       1  0.9000000000E-01         6    6         1     12654  0.3595408989E+00  0.4663629025E+00  0.9101741995E+00  0.1101572454E+03  0.7039908871E+02 -0.7526966742E+01        11
       9       1  0.9000000000E-01         7    7         1     28896  0.8143721000E-01  0.6056681000E+00  0.4174325000E+00  0.1204886233E+03  0.4381700430E+02 -0.1157477896E+02        24
       9       1  0.9000000000E-01         8    8         1     29949  0.1946661999E-02  0.5541440000E+00  0.6509401000E+00  0.1380116800E+03  0.5866243200E+02 -0.1180472609E+02        25
       9       1  0.9000000000E-01         9    9         1     28024  0.9407370000E+00  0.9135429000E+00  0.8305396000E+00  0.1436444220E+03  0.1474062870E+02 -0.1115084791E+02        23
       9       1  0.9000000000E-01        10   10         1     13257  0.5449733972E+00  0.9335521012E+00  0.6357708314E+00  0.1592698404E+03  0.2080065630E+02 -0.7609287544E+01        11
       9       1  0.9000000000E-01        11   11         1     17214  0.4499999998E+00  0.2500000008E+00  0.5088750390E-04  0.1707000000E+03  0.9975000000E+02 -0.8999999994E+01        15
      10       1  0.1000000000E+00         1    1         1     14200  0.3120700998E+00  0.6718079995E+00  0.3458021607E+00  0.1458724206E+03  0.4401542400E+02 -0.7996277165E+01        12
      10       1  0.1000000000E+00         2    2         1     10215  0.8726156991E+00  0.9826824995E+00  0.1377594526E+00  0.1792356942E+03  0.7194804750E+02 -0.7158692109E+01         9
      10       1  0.1000000000E+00         3    3         1     24237  0.6687631506E+00  0.1558285941E+00  0.2237752129E+00  0.1000125789E+03  0.2146748578E+02 -0.1043287905E+02        20
      10       1  0.1000000000E+00         4    4         1     16088  0.2094304926E+00  0.7341103118E+00  0.5387649719E+00  0.1332565830E+03  0.9220233094E+02 -0.8538386938E+01        14
      10       1  0.1000000000E+00         5    5         1     13460  0.3571912976E+00  0.9585657978E+00  0.6065483150E+00  0.1161431478E+03  0.2875697393E+01 -0.7618054276E+01        11
      10       1  0.1000000000E+00         6    6         1     12654  0.3595408988E+00  0.4663629028E+00  0.9101741772E+00  0.1101572454E+03  0.7039908871E+02 -0.7526966749E+01        11
      10       1  0.1000000000E+00         7    7         1     28896  0.8143721000E-01  0.6056681000E+00  0.4174325000E+00  0.1204886233E+03  0.4381700430E+02 -0.1157477896E+02        24
      10       1  0.1000000000E+00         8    8         1     29949  0.1946661999E-02  0.5541440000E+00  0.6509401000E+00  0.1380116800E+03  0.5866243200E+02 -0.1180472609E+02        25
      10       1  0.1000000000E+00         9    9         1     28024  0.9407370000E+00  0.9135429000E+00  0.8305396000E+00  0.1436444220E+03  0.1474062870E+02 -0.1115084791E+02        23
      10       1  0.1000000000E+00        10   10         1     13257  0.5449733969E+00  0.9335521013E+00  0.6357708127E+00  0.1592698404E+03  0.2080065630E+02 -0.7609287549E+01        11
      10       1  0.1000000000E+00        11   11         1     17214  0.4499999998E+00  0.2500000009E+00  0.5089025322E-04  0.1707000000E+03  0.9975000000E+02 -0.8999999993E+01        15
      11       1  0.1100000000E+00         1    1         1     14200  0.3120700998E+00  0.6718079995E+00  0.3458021567E+00  0.1458724206E+03  0.4401542400E+02 -0.7996277166E+01        12
      11       1  0.1100000000E+00         2    2         1     10215  0.8726156990E+00  0.9826824994E+00  0.1377594578E+00  0.1792356942E+03  0.7194804750E+02 -0.7158692107E+01         9
      11       1  0.1100000000E+00         3    3         1     24237  0.6687631157E+00  0.1558285835E+00  0.2237752342E+00  0.1000125787E+03  0.2146748575E+02 -0.1043287904E+02        20
      11       1  0.1100000000E+00         4    4         1     16088  0.2094304919E+00  0.7341103130E+00  0.5387649691E+00  0.1332565830E+03  0.9220233094E+02 -0.8538386939E+01        14
      11       1  0.1100000000E+00         5    5         1     13460  0.3571912974E+00  0.9585657975E+00  0.6065483065E+00  0.1161431478E+03  0.2875697393E+01 -0.7618054279E+01        11
      11       1  0.1100000000E+00         6    6         1     12654  0.3595408987E+00  0.4663629031E+00  0.9101741550E+00  0.1101572454E+03  0.7039908871E+02 -0.7526966755E+01        11
      11       1  0.1100000000E+00         7    7         1     28896  0.8143721000E-01  0.6056681000E+00  0.4174325000E+00  0.1204886233E+03  0.4381700430E+02 -0.1157477896E+02        24
      11       1  0.1100000000E+00         8    8         1     29949  0.1946661999E-02  0.5541440000E+00  0.6509401000E+00  0.1380116800E+03  0.5866243200E+02 -0.1180472609E+02        25
      11       1  0.1100000000E+00         9    9         1     28024  0.9407370000E+00  0.9135429000E+00  0.8305396000E+00  0.1436444220E+03  0.1474062870E+02 -0.1115084791E+02        23
      11       1  0.1100000000E+00        10   10         1     13257  0.5449733965E+00  0.9335521015E+00  0.6357707940E+00  0.1592698404E+03  0.2080065630E+02 -0.7609287555E+01        11
      11       1  0.1100000000E+00        11   11         1     17214  0.4499999998E+00  0.2500000009E+00  0.5089300254E-04  0.1707000000E+03  0.9975000000E+02 -0.8999999992E+01        15
      12       1  0.1200000000E+00         1    1         1     14200  0.3120700998E+00  0.6718079994E+00  0.3458021528E+00  0.1458724206E+03  0.4401542400E+02 -0.7996277167E+01        12
      12       1  0.1200000000E+00         2    2         1     10215  0.8726156989E+00  0.9826824994E+00  0.1377594631E+00  0.1792356942E+03  0.7194804750E+02 -0.7158692106E+01         9
      12       1  0.1200000000E+00         3    3         1     24237  0.6687630807E+00  0.1558285729E+00  0.2237752555E+00  0.1000125785E+03  0.2146748572E+02 -0.1043287904E+02        20
      12       1  0.1200000000E+00         4    4         1     16088  0.2094304912E+00  0.7341103142E+00  0.5387649663E+00  0.1332565829E+03  0.9220233094E+02 -0.8538386940E+01        14
      12       1  0.1200000000E+00         5    5         1     13460  0.3571912972E+00  0.9585657973E+00  0.6065482979E+00  0.1161431478E+03  0.2875697392E+01 -0.7618054282E+01        11
      12       1  0.1200000000E+00         6    6         1     12654  0.3595408986E+00  0.4663629033E+00  0.9101741327E+00  0.1101572454E+03  0.7039908871E+02 -0.7526966762E+01        11
      12       1  0.1200000000E+00         7    7         1     28896  0.8143721000E-01  0.6056681000E+00  0.4174325000E+00  0.1204886233E+03  0.4381700430E+02 -0.1157477896E+02        24
      12       1  0.1200000000E+00         8    8         1     29949  0.1946661999E-02  0.5541440000E+00  0.6509401000E+00  0.1380116800E+03  0.5866243200E+02 -0.1180472609E+02        25
      12       1  0.1200000000E+00         9    9         1     28024  0.9407370000E+00  0.9135429000E+00  0.8305396001E+00  0.1436444220E+03  0.1474062870E+02 -0.1115084791E+02        23
      12       1  0.1200000000E+00        10   10         1     13257  0.5449733962E+00  0.9335521016E+00  0.6357707753E+00  0.1592698404E+03  0.2080065630E+02 -0.7609287561E+01        11
      12       1  0.1200000000E+00        11   11         1     17214  0.4499999998E+00  0.2500000010E+00  0.5089575186E-04  0.1707000000E+03  0.9975000000E+02 -0.8999999991E+01        15
      13       1  0.1300000000E+00         1    1         1     14200  0.3120700997E+00  0.6718079994E+00  0.3458021489E+00  0.1458724206E+03  0.4401542400E+02 -0.7996277168E+01        12
      13       1  0.1300000000E+00         2    2         1     10215  0.8726156988E+00  0.9826824993E+00  0.1377594684E+00  0.1792356942E+03  0.7194804750E+02 -0.7158692104E+01         9
      13       1  0.1300000000E+00         3    3         1     24237  0.6687630458E+00  0.1558285623E+00  0.2237752768E+00  0.1000125783E+03  0.2146748569E+02 -0.1043287903E+02        20
      13       1  0.1300000000E+00         4    4         1     16088  0.2094304904E+00  0.7341103153E+00  0.5387649635E+00  0.1332565829E+03  0.9220233095E+02 -0.8538386940E+01        14
      13       1  0.1300000000E+00         5    5         1     13460  0.3571912969E+00  0.9585657971E+00  0.6065482894E+00  0.1161431478E+03  0.2875697391E+01 -0.7618054284E+01        11
      13       1  0.1300000000E+00         6    6         1     12654  0.3595408985E+00  0.4663629036E+00  0.9101741104E+00  0.1101572454E+03  0.7039908871E+02 -0.7526966769E+01        11
      13       1  0.1300000000E+00         7    7         1     28896  0.8143721000E-01  0.6056681000E+00  0.4174325000E+00  0.1204886233E+03  0.4381700430E+02 -0.1157477896E+02        24
      13       1  0.1300000000E+00         8    8         1     29949  0.1946661999E-02  0.5541440000E+00  0.6509401000E+00  0.1380116800E+03  0.5866243200E+02 -0.1180472609E+02        25
      13       1  0.1300000000E+00         9    9         1     28024  0.9407370000E+00  0.9135429000E+00  0.8305396001E+00  0.1436444220E+03  0.1474062870E+02 -0.1115084791E+02        23
      13       1  0.1300000000E+00        10   10         1     13257  0.5449733959E+00  0.9335521017E+00  0.6357707565E+00  0.1592698404E+03  0.2080065631E+02 -0.7609287566E+01        11
      13       1  0.1300000000E+00        11   11         1     17214  0.4499999998E+00  0.2500000011E+00  0.5089850118E-04  0.1707000000E+03  0.9975000000E+02 -0.8999999990E+01        15
      14       1  0.1400000000E+00         1    1         1     14200  0.3120700997E+00  0.6718079993E+00  0.3458021449E+00  0.1458724206E+03  0.4401542400E+02 -0.7996277169E+01        12
      14       1  0.1400000000E+00         2    2         1     10215  0.8726156987E+00  0.9826824993E+00  0.1377594736E+00  0.1792356942E+03  0.7194804750E+02 -0.7158692103E+01         9
      14       1  0.1400000000E+00         3    3         1     24237  0.6687630108E+00  0.1558285517E+00  0.2237752980E+00  0.1000125781E+03  0.2146748566E+02 -0.1043287902E+02        20
      14       1  0.1400000000E+00         4    4         1     16088  0.2094304897E+00  0.7341103165E+00  0.5387649607E+00  0.1332565829E+03  0.9220233095E+02 -0.8538386941E+01        14