# File generated by Flopy version 3.9.5 on 11/03/2025 at 10:09:32.
BEGIN options
  SAVE_FLOWS
  SAVE_SPECIFIC_DISCHARGE
  SAVE_SATURATION
END options

BEGIN griddata
  icelltype
    CONSTANT  0
  k  LAYERED
    INTERNAL  FACTOR  1.0
      1.87707544E-05  6.36966990E-10  1.20700329E-09  1.11840586E-06  8.41265471E-05  8.93106240E-05  3.65380624E-05  4.88250282E-06  5.08602494E-06  5.26418821E-05  5.24960310E-04  4.15290456E-04  1.02996972E-04  3.78091377E-05  5.13642956E-05  1.19864010E-04  1.47633182E-04  8.04859708E-05  2.00625535E-05  1.55289532E-05
      1.92726166E-05  7.19864658E-08  2.09052044E-07  1.87902540E-06  1.73183754E-04  6.08369542E-05  1.86751172E-05  2.42743962E-05  8.86821136E-05  1.75331410E-05  4.00902449E-06  3.25308364E-07  1.57099022E-07  2.56836119E-06  2.40160080E-04  2.49113190E-04  8.02779648E-05  2.61219849E-05  2.64926276E-05  4.60228454E-05
      4.37117095E-05  3.32628879E-05  7.12410059E-06  3.49022023E-05  3.68145812E-05  1.92037752E-06  8.33998219E-05  2.96455288E-05  1.62848527E-04  8.36371450E-05  1.91963654E-05  3.62178966E-05  4.04969781E-05  8.60675195E-06  2.59519790E-07  4.33151758E-08  5.25323928E-08  5.84083936E-08  8.51350931E-05  1.21776287E-04
      8.52247463E-05  3.51399630E-05  1.91852260E-05  3.41741098E-05  2.75764271E-07  5.55266295E-07  1.15070751E-07  3.56512673E-06  1.96994060E-05  4.61713531E-05  3.03378804E-04  8.22219934E-05  5.51123048E-05  2.78756267E-05  6.72659897E-06  8.06139794E-06  3.38399618E-05  1.43347480E-05  1.75904373E-07  1.07393346E-07
      6.99477427E-08  9.63300326E-09  2.06305049E-05  7.43213244E-05  6.59738426E-05  5.00093790E-05  3.85351398E-05  5.47983862E-05  4.84461995E-05  3.62696665E-05  1.36554440E-05  1.97644451E-08  7.47849815E-08  2.00084814E-05  2.15023442E-04  9.06795860E-05  1.40231799E-05  1.14414686E-05  2.50708258E-06  3.01312342E-07
      3.51804837E-05  4.08601337E-05  1.96932485E-06  1.50140191E-07  8.42114530E-08  7.41057720E-08  4.76859273E-05  1.51757368E-04  1.12091747E-04  6.20579500E-05  2.78760646E-05  3.42884556E-05  9.92598317E-05  9.07568903E-05  1.06164124E-04  9.75665911E-06  3.34380834E-06  2.71051405E-05  2.08325942E-04  3.49260640E-05
      1.54966911E-05  2.43257909E-05  1.08556420E-05  2.87201128E-06  1.74075021E-05  4.38638052E-05  3.15175732E-07  1.16673230E-06  4.35427230E-06  4.19349455E-05  8.52903612E-05  9.89645168E-05  1.22050856E-04  1.41714735E-05  4.29456588E-06  9.04626760E-06  3.86482466E-05  8.85868881E-05  9.60658170E-05  3.46474254E-05
      8.05417994E-06  6.57124049E-05  1.81534266E-04  1.27220268E-05  4.63340017E-05  4.70040446E-05  2.87960287E-05  1.18531481E-05  8.34451800E-05  1.17882022E-04  1.84890189E-05  8.98040207E-06  3.20864472E-05  5.05753468E-05  4.11492371E-05  8.69145700E-05  1.19306447E-04  2.43423983E-07  5.38800498E-07  1.91903158E-05
      3.23176874E-05  1.32765402E-04  1.08900370E-04  3.53195998E-05  1.14765242E-05  4.67949803E-05  9.17199219E-06  1.52335604E-07  1.08871862E-04  3.69779890E-05  2.49280505E-05  4.07372362E-05  3.58225445E-04  1.59300705E-04  4.16854260E-05  1.91716951E-05  2.74864777E-05  4.77774438E-05  3.40902669E-05  3.84114575E-05
      4.34148726E-05  2.21234495E-05  4.38879324E-05  3.27699138E-05  2.57407243E-05  4.08184643E-05  3.60019333E-05  5.11718522E-05  9.92955791E-05  1.34338931E-04  2.57928378E-05  1.79210257E-05  6.80152205E-05  6.88952926E-05  2.19751282E-04  1.10885137E-04  1.60201882E-05  1.24586425E-05  3.28005108E-05  3.67505338E-08
      1.16310330E-08  1.21686509E-04  5.43007962E-05  2.68787464E-05  6.91078774E-05  6.09777894E-04  1.85643060E-04  3.95619942E-05  2.58977117E-05  3.62614327E-05  3.08314386E-05  3.94238645E-05  4.32863236E-05  3.91394419E-05  6.07065971E-05  1.98058587E-05  4.02158538E-05  4.02454573E-05  1.93664081E-05  4.19894304E-05
      3.20257067E-05  2.18032687E-05  2.12063436E-05  2.79806350E-05  3.01922837E-05  4.05816507E-05  5.27386479E-05  4.75838388E-05  4.85708401E-05  5.69683716E-05  5.25645301E-05  6.98287780E-05  7.18311728E-05  4.37669379E-05  6.63039696E-05  2.54780298E-05  6.13442809E-05  5.13256741E-05  7.17130284E-05  5.21907933E-05
      6.06451414E-05  5.10521574E-05  6.67567166E-05  6.98132096E-05  7.13320099E-05  7.26410270E-05  7.38892003E-05  5.72230532E-05  4.73941329E-05  3.83324763E-05  4.17464562E-05  4.47136477E-05  3.49987110E-05  2.44134284E-05  1.00949247E-04  9.17765454E-05  5.84789730E-05  6.48858120E-05  2.72808555E-05  3.48304106E-05
      5.45390552E-05  5.72081618E-05  3.11368157E-05  3.11370182E-05  1.28196483E-04  1.62966691E-04  8.43497105E-05  1.05178236E-04  3.78916718E-05  5.35528035E-05  1.29898169E-04  1.42112356E-04  6.23255502E-05  1.05775841E-04  9.75996473E-05  5.62992206E-05  1.21099499E-04  9.47260421E-05  9.61067836E-05  9.71429286E-05
      8.39272483E-05  7.42521324E-05  1.02753580E-04  1.01430218E-04  5.85367290E-05  9.82605524E-05  7.57292441E-05  9.18267909E-05  9.42918877E-05  8.61930747E-05  1.05117901E-04  1.16668177E-04  8.68948202E-05  9.05550220E-05  8.68929027E-05  5.86949209E-05  9.92974970E-05  8.41040933E-05  8.33730516E-05  7.91061736E-05
      5.93167637E-05  5.23322207E-05  5.98817639E-05  5.08509252E-05  7.50002112E-05  9.94467480E-05  6.49352215E-05  9.90570806E-05  6.00798352E-05  9.01189821E-05  9.60738805E-05  1.53163473E-04  1.09037361E-04  2.75651517E-05  1.61729979E-05  2.39529056E-05  1.84373395E-07  1.11801899E-07  1.62365997E-07  2.33068478E-05
      3.30799046E-05  1.90919274E-04       0.00100966  3.21883280E-04  5.67010477E-05  2.90749020E-05  3.19476754E-05  2.89031814E-05  2.57264432E-05  2.53188329E-05  1.68405402E-05  2.03409259E-05  1.40491926E-05  5.40891788E-06  1.77523536E-05  1.54168255E-05  1.40943783E-05  4.35583775E-06  3.59574449E-06  2.35311882E-06
      3.10383408E-07  5.72515658E-06  7.21011733E-06  2.78001707E-08  1.88204441E-08  7.24210423E-06  6.90397626E-06  1.61688598E-08  1.84250282E-08  5.76939253E-08  2.84234701E-08  9.67114202E-06  3.48729789E-05  7.41262411E-08  1.17015621E-05  4.76105706E-05  8.50600156E-05  3.71686256E-05  8.49958698E-05  4.90192476E-08
      8.27423263E-06  6.57382581E-08  8.75735963E-06  1.90332352E-05  9.12969696E-05  1.87100599E-05  8.98697424E-05  9.47977644E-05  1.12378131E-04  1.13568413E-04  1.38032735E-04  1.29876176E-04  1.15374644E-04  1.29842916E-04  1.26082838E-04  1.38496925E-04  1.42258271E-04  1.40592576E-04  1.34312368E-04  1.25413883E-04
      1.18701403E-04  1.10488660E-04  9.83177887E-05  1.00581145E-04  8.35667716E-05  1.06469001E-04  8.16639968E-05  7.25332399E-05  7.22421908E-05  6.61604394E-05  5.99890395E-05  1.08467903E-04  8.30697424E-05  1.01356076E-04  9.20112667E-05  6.44276320E-05  5.84060656E-05  7.05845677E-05  6.38433580E-05  6.81379117E-05
      6.49692150E-05  5.81730395E-05  5.60907874E-05  5.44012491E-05  5.02402177E-05  5.74971130E-05  4.95424673E-05  5.48685471E-05  5.45733688E-05  6.17638539E-05  5.99676633E-05  6.11528063E-05  5.48329854E-05  5.68309985E-05  5.70939502E-05  5.44306727E-05  7.56814107E-05  5.09760549E-05  6.28763773E-05  6.70989949E-05
      4.33060040E-05  3.18671947E-05  5.71282750E-05  5.77575614E-05  2.90720598E-05  3.95676183E-05  6.36383655E-05  7.99348394E-05  1.84025560E-04  2.65278633E-08  4.26098049E-07  5.43835294E-06  1.24023187E-04  6.81571500E-04  7.72370046E-04  1.16243124E-04  3.12365144E-05  1.13022660E-05  3.21957119E-06  3.60104912E-07
      1.54715093E-07  2.21249910E-07  3.24901487E-05  2.16485924E-06  6.30134614E-05  1.20752663E-04  9.12029530E-05  1.04685504E-04  1.09161846E-04  9.15648519E-05  9.36540444E-05  8.97666054E-05  9.11200160E-05  8.16084087E-05  7.27748972E-05  8.62499894E-05  8.45663979E-05  1.00249932E-04  1.03946023E-04  7.73274142E-05
      6.50747391E-05  8.50303184E-05  7.21185996E-05  5.67379706E-05  5.54297931E-05  4.57637401E-05  3.80778081E-05  8.85628301E-05  5.18340567E-05  2.51743382E-05  1.43206798E-05  1.48424431E-05  6.44449619E-06  6.45043324E-06  4.20757123E-05  7.93879280E-05  1.91724551E-04  6.81914037E-05  6.55315413E-05  1.66725953E-04
      5.08725513E-06  5.00339929E-07  4.40422720E-07  7.19021223E-06  1.76348542E-04  8.37299535E-04  3.35395046E-04  6.32042043E-05  4.63599193E-06  1.42018140E-06  9.75826153E-07  2.38907225E-06  6.76565038E-05  2.35962776E-04  1.75358692E-04  5.50147871E-05  2.10837184E-05  1.35959228E-05  1.96282719E-05  8.39142309E-05
      1.40518686E-04  4.67298450E-05  1.70418263E-05  3.26285092E-05  1.97585295E-05  4.32715515E-06  3.72306589E-07  5.43633372E-07  8.06039505E-05  6.40847404E-04       0.00112684  1.73226237E-04  1.45995388E-05  1.51892604E-05  1.47770226E-05  2.60005604E-05  1.95687297E-04  5.05956720E-04  3.67886938E-04  4.86802827E-05
      1.17581972E-05  2.04134232E-05  1.09661200E-04  6.09627018E-05  4.86902588E-05  5.54352005E-05  2.24739225E-05  2.58556101E-05  3.97208586E-05  2.46631404E-05  6.45817496E-06  7.21081961E-06  5.04294689E-05  4.30440290E-04       0.00142897  1.01654364E-04  1.79989850E-05  1.12452499E-04  5.39646479E-05  4.75974500E-05
      1.78425738E-04  4.18626945E-04  6.65719077E-04  1.34497045E-04  2.76402832E-05  6.88908067E-05  4.92291782E-04  1.57525685E-04  1.23382525E-04  8.02381361E-05  2.73874139E-05  2.47662306E-05  6.39052405E-05  2.61120544E-05  4.37494449E-05  3.84393522E-05  3.53263337E-05  2.15809033E-04  4.99669226E-04  9.36029885E-05
      5.52012622E-05  2.13265224E-04  5.96895791E-05  3.10823917E-05  1.08414134E-04  3.10663001E-04  9.70951724E-04  1.79074774E-04  3.82644390E-05  1.15829582E-04  7.26413800E-04  3.61160737E-04  9.26495806E-05  2.28016928E-05  1.37775638E-05  2.05111163E-05  9.53623738E-05  2.59151599E-05  5.56333355E-05  8.96369549E-05
      1.67844483E-05  6.18225966E-05  2.90469834E-04  9.40933548E-05  4.84765355E-05  7.86611447E-05  3.85802116E-05  9.33093153E-06  2.10234965E-05  2.16158400E-04  6.21030020E-04  9.02263585E-05  1.69085639E-05  3.14659279E-05  2.97511133E-04  3.72095474E-04  2.84127917E-05  2.18190068E-05  1.57343936E-05  1.95983083E-05
    INTERNAL  FACTOR  1.0
      5.45264743E-08  2.79953631E-07  1.53858036E-06       0.00116777       0.00189837       0.00410632       0.00234408       0.00592401       0.00770885       0.00204397  5.89771133E-04  3.13434906E-08       0.00166334       0.00158749  6.63264109E-06  5.31431853E-07  5.36938409E-07  1.46850634E-06  4.35337797E-07  5.17826241E-08
      1.54548341E-04  2.33985748E-08  2.28989385E-07  8.63914857E-07  2.08710223E-04  2.32075647E-07  8.27835331E-05  7.55585355E-04       0.00911746       0.00163544  8.49494124E-04       0.00272643       0.00885386       0.00537351       0.00337648  2.50466565E-04  2.08840957E-04  2.41479609E-04  2.07620357E-06  5.12533497E-07
      3.50806448E-06  9.54222575E-06  1.04541298E-05  4.86037150E-07  2.51474932E-04  2.29662184E-05  3.64433880E-07  5.66345276E-07       0.00221128  5.29218517E-04       0.00181382       0.00360015       0.00197186       0.00148624       0.00183590       0.00348924       0.00233399       0.00544847       0.00270956  6.09425429E-06
      1.64757888E-06  8.23076243E-06  1.33130149E-04  3.66857315E-05  4.17132618E-05  9.16164048E-05  3.21612458E-05  7.11861976E-05  5.21323417E-04  4.22296217E-04  7.85125947E-05  5.88688089E-05  2.55957606E-04  6.57015713E-04  5.20462448E-04       0.00438173       0.00180586  6.70917410E-04  9.96913120E-04       0.00223749
      7.55073828E-05  9.44785978E-04  5.67487782E-04  4.09506451E-05  3.82764707E-05  2.53973525E-05       0.00178808       0.00503745  6.82483315E-04  2.10675444E-04  8.82310897E-07  3.54390807E-08  2.29759140E-04  5.83761785E-04       0.00106307  5.62743863E-04  5.76968668E-07  1.48221288E-07  1.18132530E-07       0.00146899
           0.00407836  9.88054094E-04       0.00109676  9.35424909E-04  4.06084011E-04  9.33758370E-04  5.02951950E-04  5.55569322E-05  3.27346209E-05  2.55039931E-05  2.31910663E-04       0.00490600       0.00240350  4.77467246E-05  1.89424057E-06  5.08196873E-08  6.28051265E-08  1.04499833E-04  3.60308865E-04  3.34874209E-04
      6.66189645E-07  2.58858534E-07  8.49980525E-08  7.09261865E-04       0.00599159       0.00287877       0.00368667       0.00165096       0.00305755  4.91841695E-04  7.27281682E-04  7.29974806E-04  4.20859992E-05  7.39350072E-06  6.75977000E-05  5.57467690E-04  9.65581366E-04  3.83417124E-05  1.56197141E-05  1.71565041E-06
      8.01448961E-05  6.41636943E-05  1.88449952E-04  2.27062224E-05  1.95770709E-06  1.17944085E-06  2.63653068E-07  6.07071631E-04       0.00333807       0.00673766       0.01056388       0.00892406       0.00899788       0.00380281  7.68941797E-04  8.43767789E-04  3.63238091E-05  1.59981118E-07  2.44318019E-07  2.45538758E-04
      5.94295804E-04  5.06651901E-04  2.94973546E-04  3.76541838E-04  4.55740657E-05  6.57805774E-06  4.69606564E-06  5.52119118E-06  4.02318648E-06  1.40926842E-06  4.09040919E-06  9.27934525E-06       0.00134787       0.00382292       0.00247553       0.00472094       0.00874304       0.00252356       0.00110721  2.88887721E-04
           0.00220646       0.00260158  2.35237700E-04  5.91261075E-04       0.00177482  5.44647073E-04  9.59277784E-04  5.74864641E-04  2.32963358E-04  8.98438835E-06  4.21806740E-04  3.78324868E-04  9.96553096E-04       0.00187181       0.00165531  2.86642108E-05  1.33637753E-06  3.36181363E-05  5.97060462E-06  3.55899178E-06
      2.01983337E-06  8.76194970E-04  1.94586669E-05  5.65623302E-05  3.00609936E-04  1.11402316E-04       0.00134048  4.78506306E-07  1.57907556E-07  1.37460217E-07  6.12274205E-08  4.08542657E-08  6.22145829E-04  4.54510900E-04  2.39085259E-04  1.53794683E-05  1.41806574E-07  2.57823938E-07  8.65271033E-08  1.28367524E-07
      7.63556835E-05  3.38191483E-08  4.36296647E-08  1.43476513E-08  3.07836053E-08  3.49812456E-07  2.29629648E-07  1.99298570E-07  1.55829926E-07  8.31525603E-06  5.73953637E-04  7.05947934E-06  8.60994617E-06  7.43984291E-08  7.49348149E-08  5.58667578E-08  6.77469370E-08  6.07751305E-08  5.70410206E-08  5.30234559E-08
      3.89800884E-08  1.53782104E-04  1.70180039E-05  7.01611674E-06  6.81326494E-06  7.52165543E-06  2.91736425E-06  2.01026810E-06  3.82179488E-08  2.00000549E-08  2.69158537E-06  2.72918590E-08  1.01607139E-08  7.35862795E-09  2.45413832E-06  1.98920439E-06  9.85622943E-09  1.48500818E-08  7.11194376E-09  9.96838950E-09
      2.05304385E-08  3.50110660E-08  1.73778598E-08  3.22084645E-08  2.57861700E-07  5.80361235E-07  1.07199407E-07  2.32579362E-07  9.03515828E-08  1.51062858E-07  4.16833806E-07  1.99256523E-04  2.31758781E-07  1.43942632E-04  8.38499194E-04       0.00263594  6.40635066E-04  9.41365281E-04  2.18129869E-04  2.96300784E-04
           0.00110734  6.00897549E-04  2.63278063E-04  2.68147396E-04       0.00162829       0.00132027  8.10553230E-04  8.26812209E-04  3.63636175E-04       0.00118079  6.45915676E-04       0.00136391       0.00117289       0.00197533       0.00179664  9.97207313E-04       0.00232268       0.00263202       0.00449347       0.00436778
           0.00119916  4.35226151E-04       0.00177129  7.81711307E-04  6.79780367E-04       0.00105196  3.25928344E-04  2.03014875E-04  5.62125089E-04  2.69751529E-04  5.05724821E-04       0.00181164  3.80659772E-05  4.56322713E-07  9.59679898E-08  2.35804042E-05  8.15600297E-07  1.48865055E-07  1.08809149E-04  1.27798621E-04
      6.92276208E-04  6.35622096E-04  9.12390957E-04       0.00256476       0.00451208       0.00296475  9.36788937E-05  1.29592532E-08  9.47876503E-04  5.34776237E-05  3.87856143E-08  8.40702828E-08  4.49572403E-08  1.64389927E-07  4.54674011E-08  1.42939031E-08  9.06602678E-09  1.72892304E-08  1.39925365E-08  9.71941559E-08
      1.04103263E-04  9.75044527E-09  8.88386956E-09  1.75570540E-08  1.44292564E-08  1.50901270E-08  2.84641288E-08  1.81474169E-08  3.92095343E-08  5.25173396E-05  7.87147389E-05  5.72049098E-08  1.31765413E-07  1.45645504E-07  1.19300714E-07  1.59936316E-07  1.99090706E-04  1.15750860E-07  1.78863052E-04  4.24295397E-06
      1.65111318E-06  6.57925065E-05  5.49263314E-05  2.17548734E-06  2.64161328E-05  8.71817074E-05  1.41235936E-05  1.11872257E-04  9.06676202E-05  1.66348583E-05  3.53220678E-06  8.94940549E-05  1.06416093E-04  1.16896577E-05  1.77501812E-05  8.94955641E-06  8.79057230E-06  9.19109259E-06  7.52018085E-06  9.37512998E-06
      1.05113372E-05  1.02372511E-05  6.44527702E-06  3.50343645E-04       0.00104949  5.90397318E-05       0.00128150       0.00213614       0.00438218       0.00133997       0.00450772  1.81302528E-05  6.49395437E-04  1.05508598E-05  1.02514865E-05  5.28324259E-04       0.00312910  1.50679868E-04       0.00359844       0.00644877
           0.00534465       0.00567357       0.00446724       0.00459210       0.00222837       0.00513276       0.00450313       0.00437360       0.00408281       0.00470227       0.00295493       0.00455214       0.00475026       0.00404600       0.00326472  9.75983758E-04  6.89554611E-04       0.00254801       0.00164503       0.00140948
           0.00359071       0.00224582       0.00441017       0.00167663  1.09028647E-04  2.36744614E-05  3.60560890E-05  2.11076241E-07  3.61174028E-07  2.25313720E-05  7.40361215E-05  4.91182207E-04  7.17096722E-04       0.00123350       0.00434189       0.00477107       0.01351930       0.00626856  6.16540682E-04  9.04617858E-04
           0.00343086  5.11149873E-04  9.03835237E-05       0.00144621  8.01573812E-04  7.50545091E-06  7.83653220E-06  1.65055070E-05  1.01065944E-05  7.78635173E-06  9.45515183E-06  8.42467193E-06  8.59747761E-06  2.70006291E-04       0.00178226  1.28257369E-05       0.00115339  9.18311663E-06  1.24226498E-05       0.00247990
           0.00440878       0.00135828       0.00239554       0.00172759       0.00312187  5.29461125E-04       0.00178388  7.04236873E-06  6.99456118E-04       0.00354616       0.00136891       0.00108455  6.15561159E-04       0.00102124       0.00427712       0.00286066       0.00131775  7.03847141E-05  1.37927466E-05  2.74430335E-06
      6.20273589E-06  8.35744900E-06  1.06122420E-04  4.31353246E-04  5.23783320E-04  9.53715986E-04       0.00238600       0.00584272       0.01721629       0.00220695       0.00264332       0.00854135       0.00835447  3.55823922E-05  6.82520870E-06  8.18069416E-06  3.39128489E-04  6.36271321E-04       0.01187978  5.32994142E-05
      3.85707442E-05  2.79654560E-04  1.92748404E-05  4.33861926E-06  5.28800174E-08  1.18858598E-07  3.16146643E-07  6.23813875E-04  9.13935174E-04       0.00120768       0.00200785       0.00480062       0.00529280       0.00305194       0.00255920       0.00177034       0.00401969  1.04000918E-04  2.91158869E-04  2.83313419E-05
      8.22545109E-05  5.39996875E-05       0.00254603  2.41062487E-06  1.91528056E-05  4.55622848E-05  4.48400687E-05  3.61551081E-06  2.93900267E-06  9.40821744E-08  9.49167305E-08       0.00247819       0.00179106       0.00136137       0.00158696       0.00550726       0.00341448       0.00277057       0.00376517  8.25282121E-05
      5.47210070E-05  1.43745192E-04       0.00159845  2.66206362E-04  3.07914934E-07  1.41475510E-06  2.75021844E-05  1.45138966E-05  2.03754901E-06  5.22513184E-07  3.11852495E-05  3.85813165E-05  4.23806170E-05  1.00396764E-05  2.01089965E-04       0.00603240       0.00525903       0.01116889       0.00121597       0.00168247
           0.00574943       0.00200293       0.00211982  1.19388579E-04  4.09856078E-05       0.00112536       0.00383926  7.97065725E-04  1.00780645E-06  3.02230837E-06  8.51206955E-05  2.89647919E-05  6.30845658E-07  1.06389520E-07  1.72435219E-06  6.49220279E-05  1.24284228E-04  2.80427529E-04  2.57139535E-04       0.00745193
           0.01307843       0.01178581       0.00162886       0.00242179       0.00564764  8.28981263E-05  1.24685005E-04       0.00114904  1.78935311E-04       0.00123601  5.13185747E-04  1.52552797E-05  4.33177534E-07  7.08774779E-07  1.21101322E-05  8.43107954E-07  2.00528207E-07  3.53972613E-08  1.04142814E-05       0.00360764
    INTERNAL  FACTOR  1.0
           0.00668341  6.83872970E-04       0.00113144  3.61533009E-04  2.53194086E-04  9.96432427E-04  5.67526967E-04       0.00931154       0.00811204       0.00321961       0.00504406       0.00394714       0.00656200  5.79969605E-04  4.59878265E-05  2.75321307E-06  4.36326416E-07  6.02057255E-05  3.83378610E-04  8.40660981E-04
      2.95925000E-07  1.06862040E-10  3.87253928E-09  3.40363766E-04       0.01756783       0.00188487       0.00230688       0.00142025       0.00256910       0.00383134       0.00130160       0.01033863       0.00747139       0.00801286       0.01266717       0.00452622  5.88580854E-04  7.64344682E-04  6.29739470E-05  2.02557212E-05
      8.22536312E-06  8.08476886E-05  1.14533664E-04  1.51825928E-04  7.67877610E-05  6.10431403E-06  5.41419380E-10  4.96086589E-08       0.00644796       0.00135259  1.08889268E-04  2.47789400E-04       0.00111216       0.00420531       0.00296119       0.00541814       0.00304579       0.00606554       0.01568389       0.00335191
      4.65126349E-04  3.71479485E-04  3.39118923E-05  2.84828098E-05  3.26622104E-05  1.16208500E-04  1.82409967E-04       0.00144339       0.00152645       0.00168257  9.26463670E-04       0.00138945  7.11923977E-04  4.89819351E-04  2.00335982E-04       0.00137326       0.00126621  5.81943207E-04  8.68638515E-04       0.00223604
           0.00171212       0.00276292       0.00673318       0.00283690       0.00129914  6.19049359E-05  3.91487068E-05  4.67989002E-05  5.53272384E-05  1.18076306E-04  2.02389724E-04  8.54184229E-04       0.00102954       0.00283160       0.00269965       0.00191116  9.87474979E-04  1.40752559E-04  7.89473536E-05       0.00108266
           0.00268901  2.71363352E-04  5.08547185E-04       0.00175690       0.00436327       0.00634217       0.00287904       0.00151521  3.49478683E-04  5.85347941E-05  3.96501515E-05  5.58854807E-05  8.34611012E-05  1.48718919E-04  1.40092377E-04  3.04205201E-04  8.27304059E-04  7.68508923E-04  9.63708628E-04  9.36122819E-04
      8.06765835E-07  2.27442928E-07  1.45029563E-06       0.00171505       0.00845519       0.00213481       0.00180775       0.00183334       0.00321798       0.00297635       0.00237252       0.00447786  3.16488459E-04  1.75678728E-05  1.23388730E-05  5.21841822E-05  1.93909329E-04  1.47644507E-04  1.17035311E-04       0.00137081
      5.74077719E-04  4.36506569E-04  5.69204476E-04  1.76509756E-04  4.60260484E-07  4.50200898E-07  3.25454160E-04       0.00746609       0.00988177       0.00400084       0.00547393       0.00576209       0.00388166       0.00218753  8.81360923E-04       0.00115964  1.51899564E-04  1.11880488E-10  1.16133544E-10  7.28967018E-05
      2.36955799E-04  1.68274124E-04  7.94687960E-05       0.00406139  3.26089840E-04  2.15437568E-04  1.83278168E-04  4.10267405E-05  8.37455789E-06  5.00469305E-07  2.58793480E-06       0.00247099       0.00422563       0.00338457  6.07015461E-05  1.28930599E-04       0.00598149  8.78893760E-04       0.00309860  8.95665147E-04
      3.68066817E-05  5.20810030E-04  6.85842395E-05  3.76996689E-04  2.11645278E-04  1.73406795E-04  6.48546919E-05  1.20339710E-04  2.01376754E-04  1.30821314E-04  1.36499479E-05  4.09417366E-06  2.87128482E-04  7.21534440E-04  7.88801618E-04  1.98808332E-04       0.00193922  5.97265224E-05  8.32604672E-07  2.00286557E-07
      2.68490021E-06       0.00170050  1.22751497E-06  2.27236515E-06       0.00298184       0.00139141       0.00179921  1.43928976E-10  1.00000001E-10  1.23850317E-10  1.00000001E-10  1.11733197E-10  6.94600867E-04  5.52470804E-04  4.22717591E-06  2.98865516E-04  4.88540625E-04       0.00100218  2.97362081E-04  3.00777094E-04
      9.08542746E-06  1.71314315E-04  2.11042813E-04  4.18897653E-05  1.79056126E-04  4.42457162E-04  4.01428066E-04  6.80304598E-04  2.95773402E-04  7.90073109E-04  2.87933708E-04  2.12180214E-04  4.39889166E-05  2.53254435E-04  4.16558483E-05  3.70478726E-04  1.23859818E-04  5.49940638E-05  4.22056831E-05  1.67746045E-04
      9.13669284E-05  5.00238495E-05  6.03041878E-05  5.87072536E-05  1.09585809E-04  6.83266952E-05  9.66458968E-05  2.73061848E-04  2.50618824E-04  1.77264731E-04  8.76044809E-05  5.03677781E-05  6.92391880E-05  4.34406582E-05  9.59863249E-05  1.66448061E-04  8.26545643E-05  8.62271570E-05  6.76077834E-05  7.01381783E-05
      1.37140843E-04  2.47862045E-04  1.22419175E-04  2.57091828E-04  2.07765157E-04  2.96643574E-04  2.66215359E-04  2.74248415E-04  2.87098060E-04  7.17448911E-04  3.88018832E-04  8.30835123E-04  4.27021554E-04  7.04891401E-04  2.88215679E-04  5.40426879E-05  6.34008516E-04  1.69459007E-04  4.84824873E-04  1.87408370E-04
      9.46707076E-05  6.04163017E-05  1.14863348E-04  8.39116188E-05  4.95357768E-04  8.84639069E-04  7.35836273E-05  8.37499508E-04  8.60849321E-05  6.47167305E-04       0.00117996       0.00180226       0.00160441       0.00282227       0.00104827  5.11837200E-04       0.00162803       0.00144224       0.00257646       0.00212309
      7.48446333E-04  5.47044107E-04       0.00165361  6.41544182E-04  5.07658079E-04  8.17837018E-04  3.29234051E-04  2.96765680E-04  3.79351035E-04  2.72827300E-04  2.58736056E-04       0.00136844  4.94474554E-04  3.49368136E-05  4.01306197E-05  7.67135482E-06  1.62811490E-07  1.00661633E-07       0.00651548  8.49513668E-04
      8.07964828E-04       0.00640218       0.00373018       0.00245844       0.00124785  7.08537802E-04  7.63810119E-05  8.77696826E-05  5.33484184E-04  1.38555576E-04  1.49063236E-04  2.26315066E-04  1.43054600E-04  3.79126430E-04  1.84894175E-04  6.54918218E-05  4.10920316E-05  1.83132705E-04  4.06588017E-04  3.75401085E-04
      7.07401100E-04  6.35079294E-05  5.96224265E-05  3.98773199E-04  1.24877452E-04  1.03847462E-04  2.10641860E-04  1.28802979E-04  2.57982490E-04  2.53946489E-04  2.49772372E-04  3.96722863E-04       0.00113437  8.13220644E-04       0.00138420  8.66436065E-04  8.26400664E-04       0.00129296  4.98664699E-04  7.26382986E-04
      5.98541415E-04  5.15318739E-04  8.53643882E-04       0.00138403  9.04852761E-04       0.00151559       0.00267880  5.13861248E-04  2.62490369E-04  2.59814504E-04  4.00601568E-04  1.39271707E-04  1.69673429E-04  3.41540501E-04  5.08965026E-04  4.12181982E-04  8.11677954E-04       0.00123103       0.00174876       0.00136288
           0.00122016       0.00270797       0.00243915  2.83445929E-04       0.00221604       0.00154763       0.00646934       0.00578073       0.01088174       0.01652338       0.02372310       0.00279200       0.00638405       0.00275032       0.00805373       0.00993915       0.01650065       0.01203521       0.01826071       0.00588528
           0.00470099       0.01229305       0.00881678       0.00474765       0.00142559       0.00858829       0.00370374       0.01794394       0.01164094       0.02438078       0.01486794       0.00788555       0.00460639       0.00773568       0.00435229  4.56207725E-04  3.30047888E-04       0.00124476  4.65844950E-04  3.51153594E-04
      9.86281947E-04  5.45138674E-04  3.08240683E-04  9.72308887E-04       0.00151274       0.00257163  9.40795786E-06  3.30907337E-06  2.40236440E-07       0.00384730  8.03570067E-04  5.12906440E-04  8.99818145E-04       0.00177939       0.00321153       0.00246020       0.00775405       0.00232869  8.83522763E-04       0.00236186
      2.79512669E-04  5.91199532E-04       0.00423459  3.64770697E-04       0.00410233       0.00478145       0.00311806       0.01145664       0.00545654       0.00351207       0.00667441       0.00495287       0.00616645       0.00898899       0.01495424       0.00604711       0.01173932       0.00417647       0.00439828       0.01549983
           0.01348990       0.01394052       0.01343472       0.00832645       0.00779034       0.00758213       0.00534262       0.00795462       0.00531909       0.00189304  7.05817369E-04       0.00158127  3.45040521E-04  2.10241404E-04       0.00247517       0.00826180       0.00401917  8.14059019E-05  3.69798172E-05  6.03039500E-07
           0.00194278       0.00114719  5.02420201E-06  2.87712653E-04       0.00100146  3.18911690E-04       0.00175193       0.00363484       0.00620802  6.99228158E-04  3.98374623E-04  2.48358341E-04  4.06315061E-04       0.01181386       0.00381973       0.00998954       0.00113848  7.99738169E-04       0.00954072       0.00415706
           0.00152220  6.45179703E-05  1.44658755E-05  6.03610820E-07       0.00292393  6.46069829E-04  8.25309618E-04  6.53974044E-04       0.00152677       0.00107891       0.00186969       0.00348991       0.00159086  5.20500620E-04  6.03647556E-04  1.13331866E-04       0.00267359       0.00763995       0.00375869       0.01019571
           0.00271290       0.00160863       0.00459971  3.07009024E-05  1.69828074E-05  9.81350390E-06  1.55024063E-05  7.57984062E-06       0.00188506  7.31515607E-04       0.00507929       0.00201127       0.00240497       0.00155776  6.39130923E-04       0.00344912       0.00100923       0.00120075       0.00417746  2.30849641E-04
      2.26230104E-04  6.59902649E-04       0.00116876       0.00676289  7.82818654E-04  5.12608759E-05  4.79728966E-04  7.47259598E-04  1.83302329E-04  6.10815119E-04  2.90629437E-04  8.76312878E-05  1.35990624E-05  1.27780609E-05       0.00115534       0.00391216       0.01025238       0.00714527  6.70993865E-04       0.00108276
           0.00511283       0.00173716       0.00312723  2.03758578E-04  8.43870974E-05  8.02730706E-05  1.37492962E-04  1.81183397E-05  5.39568981E-10  7.87940799E-10  4.31688504E-04       0.00348207       0.00275576       0.00611076       0.00208636       0.00254020  1.63054799E-05  7.26028687E-06  4.78584530E-04       0.00565306
           0.01270678       0.00818024       0.00103006       0.00290159       0.00512041       0.00118740       0.00101387  5.42074494E-04  2.43510773E-05  1.03793135E-05  1.15572430E-05  1.33951393E-04  2.85124234E-08  5.83374951E-08  4.24755376E-04       0.00107076       0.00148350       0.00366783       0.00873984       0.01175811
    INTERNAL  FACTOR  1.0