# Name file for MODPATH 7, generated by Flopy version 3.9.2.
MPBAS      test_mp_forward.mpbas
GRBDIS     .\test.dis.grb
TDIS       .\sim_test.tdis
HEAD       .\test.hds
BUDGET     .\test.cbc
