# File generated by Flopy version 3.9.2 on 02/26/2025 at 16:18:22.
BEGIN options
  COMPLEXITY  simple
END options

