# File generated by Flopy version 3.9.2 on 02/26/2025 at 16:18:22.
BEGIN options
END options

BEGIN packages
  DIS6  test.dis  dis
  IC6  test.ic  ic
  OC6  test.oc  oc
  NPF6  test.npf  npf
END packages

