# File generated by Flopy version 3.9.2 on 02/26/2025 at 16:18:31.
BEGIN options
  SAVE_FLOWS
  SAVE_SATURATION
END options

BEGIN griddata
  icelltype
    CONSTANT  0
  k
    CONSTANT       0.00100000
END griddata

