# File generated by Flopy version 3.9.1 on 01/23/2025 at 14:42:33.
BEGIN options
END options

BEGIN griddata
  porosity
    CONSTANT       0.20000000
END griddata

