# File generated by Flopy version 3.9.1 on 01/23/2025 at 14:42:32.
BEGIN options
  TIME_UNITS  days
END options

BEGIN dimensions
  NPER  1
END dimensions

BEGIN perioddata
       1.00000000  1       1.00000000
END perioddata

