# File generated by Flopy version 3.9.1 on 01/20/2025 at 21:53:15.
BEGIN options
END options

BEGIN griddata
  porosity
    CONSTANT       0.20000000
END griddata

