# File generated by Flopy version 3.9.1 on 01/23/2025 at 14:42:32.
BEGIN options
END options

BEGIN packages
  DIS6  test.dis  dis
  MIP6  test.mip  mip
  PRP6  test.prp  prp
  OC6  test.oc  oc
  FMI6  test.fmi  fmi
END packages

