# File generated by Flopy version 3.8.2 on 01/20/2025 at 17:10:31.
BEGIN options
  BUDGET  FILEOUT  test.bud
  TRACK  FILEOUT  test.trk
  TRACKCSV  FILEOUT  test.trk.csv
END options

BEGIN period  1
  SAVE  BUDGET  ALL
END period  1

