# File generated by Flopy version 3.8.2 on 01/20/2025 at 17:10:31.
BEGIN options
END options

BEGIN dimensions
  NLAY  4
  NROW  70
  NCOL  140
END dimensions

BEGIN griddata
  delr
    INTERNAL  FACTOR  1.0
         1.50000000       1.50000000       1.50000000       1.50000000       1.50000000       1.50000000       1.50000000       1.50000000       1.50000000       1.50000000       1.50000000       1.50000000       1.50000000       1.50000000       1.50000000       1.50000000       1.50000000       1.50000000       1.50000000       1.50000000       1.50000000       1.50000000       1.50000000       1.50000000       1.50000000       1.50000000       1.50000000       1.50000000       1.50000000       1.50000000       1.50000000       1.50000000       1.50000000       1.50000000       1.50000000       1.50000000       1.50000000       1.50000000       1.50000000       1.50000000       1.50000000       1.50000000       1.50000000       1.50000000       1.50000000       1.50000000       1.50000000       1.50000000       1.50000000       1.50000000       1.50000000       1.50000000       1.50000000       1.50000000       1.50000000       1.50000000       1.50000000       1.50000000       1.50000000       1.50000000       1.50000000       1.50000000       1.50000000       1.50000000       1.50000000       1.50000000       1.50000000       1.50000000       1.50000000       1.50000000       1.50000000       1.50000000       1.50000000       1.50000000       1.50000000       1.50000000       1.50000000       1.50000000       1.50000000       1.50000000       1.50000000       1.50000000       1.50000000       1.50000000       1.50000000       1.50000000       1.50000000       1.50000000       1.50000000       1.50000000       1.50000000       1.50000000       1.50000000       1.50000000       1.50000000       1.50000000       1.50000000       1.50000000       1.50000000       1.50000000       1.50000000       1.50000000       1.50000000       1.50000000       1.50000000       1.50000000       1.50000000       1.50000000       1.50000000       1.50000000       1.50000000       1.50000000       1.50000000       1.50000000       1.50000000       1.50000000       1.50000000       1.50000000       1.50000000       1.50000000       1.50000000       1.50000000       1.50000000       1.50000000       1.50000000       1.50000000       1.50000000       1.50000000       1.50000000       1.50000000       1.50000000       1.50000000       1.50000000       1.50000000       1.50000000       1.50000000       1.50000000       1.50000000       1.50000000       1.50000000
  delc
    INTERNAL  FACTOR  1.0
         1.50000000       1.50000000       1.50000000       1.50000000       1.50000000       1.50000000       1.50000000       1.50000000       1.50000000       1.50000000       1.50000000       1.50000000       1.50000000       1.50000000       1.50000000       1.50000000       1.50000000       1.50000000       1.50000000       1.50000000       1.50000000       1.50000000       1.50000000       1.50000000       1.50000000       1.50000000       1.50000000       1.50000000       1.50000000       1.50000000       1.50000000       1.50000000       1.50000000       1.50000000       1.50000000       1.50000000       1.50000000       1.50000000       1.50000000       1.50000000       1.50000000       1.50000000       1.50000000       1.50000000       1.50000000       1.50000000       1.50000000       1.50000000       1.50000000       1.50000000       1.50000000       1.50000000       1.50000000       1.50000000       1.50000000       1.50000000       1.50000000       1.50000000       1.50000000       1.50000000       1.50000000       1.50000000       1.50000000       1.50000000       1.50000000       1.50000000       1.50000000       1.50000000       1.50000000       1.50000000
  top
    INTERNAL  FACTOR  1.0
        -6.00000000      -6.00000000      -6.00000000      -6.00000000      -6.00000000      -5.98999977      -5.98999977      -5.98999977      -5.98999977      -5.98999977      -5.98999977      -5.98999977      -5.98999977      -5.98999977      -5.98999977      -5.98999977      -5.98999977      -5.98999977      -6.00000000      -6.00000000      -6.00000000      -6.00000000      -6.00000000      -6.00000000      -6.00000000      -6.00000000      -6.00000000      -6.00000000      -6.00000000      -6.00000000      -6.00000000      -6.00000000      -6.00000000      -6.00000000      -6.00000000      -6.00000000      -6.00000000      -6.00000000      -6.00000000      -6.00000000      -6.00000000      -6.00000000      -6.00000000      -6.00000000      -6.00000000      -6.00000000      -6.00000000      -6.00000000      -6.00000000      -6.00000000      -6.00000000      -6.00000000      -6.00000000      -6.00000000      -6.00000000      -6.00000000      -6.00000000      -6.00000000      -6.00000000      -6.00000000      -6.00000000      -6.00000000      -6.00000000      -6.00000000      -6.00000000      -6.00000000      -6.00000000      -6.00000000      -6.00000000      -6.00000000      -6.00000000      -6.00000000      -6.00000000      -6.00000000      -6.00000000      -6.00000000      -6.00000000      -6.00000000      -6.00000000      -6.00000000      -6.00000000      -6.00000000      -6.00000000      -6.00000000      -5.98999977      -5.98999977      -5.98999977      -5.98999977      -5.98999977      -6.00000000      -6.00000000      -6.00000000      -6.00000000      -6.00000000      -6.00000000      -6.00000000      -6.00000000      -6.00000000      -6.00000000      -6.00000000      -6.00000000      -6.00000000      -6.00000000      -6.00000000      -6.00000000      -6.00000000      -6.00000000      -6.00000000      -6.00000000      -6.00000000      -6.00000000      -6.00000000      -6.00000000      -6.00000000      -6.00000000      -6.00000000      -6.00000000      -6.00000000      -6.00000000      -6.00000000      -6.00000000      -6.00000000      -6.00000000      -6.00000000      -6.00000000      -6.00000000      -6.00000000      -6.00000000      -6.00000000      -6.00000000      -6.00000000      -6.00000000      -6.00000000      -6.00000000      -6.00000000      -6.00000000      -6.00000000      -6.00000000      -6.00000000      -6.00000000
        -6.00000000      -6.00000000      -6.00000000      -6.00000000      -5.98999977      -5.98999977      -5.98999977      -5.98999977      -5.98999977      -5.98999977      -5.98999977      -5.98999977      -5.98999977      -5.98999977      -5.98999977      -5.98999977      -5.98999977      -5.98999977      -6.00000000      -6.00000000      -6.00000000      -6.00000000      -6.00000000      -6.00000000      -6.00000000      -6.00000000      -6.00000000      -6.00000000      -6.00000000      -6.00000000      -6.00000000      -6.00000000      -6.00000000      -6.00000000      -6.00000000      -6.00000000      -6.00000000      -6.00000000      -6.00000000      -6.00000000      -6.00000000      -6.00000000      -6.00000000      -6.00000000      -6.00000000      -6.00000000      -6.00000000      -6.00000000      -6.00000000      -6.00000000      -6.00000000      -6.00000000      -6.00000000      -6.00000000      -6.00000000      -6.00000000      -6.00000000      -6.00000000      -6.00000000      -6.00000000      -6.00000000      -6.00000000      -6.00000000      -6.00000000      -6.00000000      -6.00000000      -6.00000000      -6.00000000      -6.00000000      -6.00000000      -6.00000000      -6.00000000      -6.00000000      -6.00000000      -6.00000000      -6.00000000      -6.00000000      -6.00000000      -6.00000000      -6.00000000      -6.00000000      -6.00000000      -6.00000000      -6.00000000      -6.00000000      -6.00000000      -6.00000000      -5.98999977      -5.98999977      -6.00000000      -6.00000000      -6.00000000      -6.00000000      -6.00000000      -6.00000000      -6.00000000      -6.00000000      -6.00000000      -6.00000000      -6.00000000      -6.00000000      -6.00000000      -6.00000000      -6.00000000      -6.00000000      -6.00000000      -6.00000000      -6.00000000      -6.00000000      -6.00000000      -6.00000000      -6.00000000      -6.00000000      -6.00000000      -6.00000000      -6.00000000      -6.00000000      -6.00000000      -6.00000000      -6.00000000      -6.00000000      -6.00000000      -6.00000000      -6.00000000      -6.00000000      -6.00000000      -6.00000000      -6.00000000      -6.00000000      -6.00000000      -6.00000000      -6.00000000      -6.00000000      -6.00000000      -6.00000000      -6.00000000      -6.00000000      -6.00000000      -6.00000000      -6.00000000
        -6.00000000      -6.00000000      -6.00000000      -5.98999977      -5.98999977      -5.98999977      -5.98999977      -5.98999977      -5.98999977      -5.98999977      -5.98999977      -5.98999977      -5.98999977      -5.98999977      -5.98999977      -5.98999977      -5.98999977      -5.98999977      -6.00000000      -6.00000000      -6.00000000      -6.00000000      -6.00000000      -6.00000000      -6.00000000      -6.00000000      -6.00000000      -6.00000000      -6.00000000      -6.00000000      -6.00000000      -6.00000000      -6.00000000      -6.00000000      -6.00000000      -6.00000000      -6.00000000      -6.00000000      -6.00000000      -6.00000000      -6.00000000      -6.00000000      -6.00000000      -6.00000000      -6.00000000      -6.00000000      -6.00000000      -6.00000000      -6.00000000      -6.00000000      -6.00000000      -6.00000000      -6.00000000      -6.00000000      -6.00000000      -6.00000000      -6.00000000      -6.00000000      -6.00000000      -6.00000000      -6.00000000      -6.00000000      -6.00000000      -6.00000000      -6.00000000      -6.00000000      -6.00000000      -6.00000000      -6.00000000      -6.00000000      -6.00000000      -6.00000000      -6.00000000      -6.00000000      -6.00000000      -6.00000000      -6.00000000      -6.00000000      -6.00000000      -6.00000000      -6.00000000      -6.00000000      -6.00000000      -6.00000000      -6.00000000      -6.00000000      -6.00000000      -5.98999977      -5.98999977      -6.00000000      -6.00000000      -6.00000000      -6.00000000      -6.00000000      -6.00000000      -6.00000000      -6.00000000      -6.00000000      -6.00000000      -6.00000000      -6.00000000      -6.00000000      -6.00000000      -6.00000000      -6.00000000      -6.00000000      -6.00000000      -6.00000000      -6.00000000      -6.00000000      -6.00000000      -6.00000000      -6.00000000      -6.00000000      -6.00000000      -6.00000000      -6.00000000      -6.00000000      -6.00000000      -6.00000000      -6.00000000      -6.00000000      -6.00000000      -6.00000000      -6.00000000      -6.00000000      -6.00000000      -6.00000000      -6.00000000      -6.00000000      -6.00000000      -6.00000000      -6.00000000      -6.00000000      -6.00000000      -6.00000000      -6.00000000      -6.00000000      -6.00000000      -6.00000000
        -6.00000000      -6.00000000      -6.00000000      -6.00000000      -6.00000000      -6.00000000      -6.00000000      -6.00000000      -5.98999977      -5.98999977      -5.98999977      -5.98999977      -5.98999977      -5.98999977      -5.98999977      -5.98999977      -5.98999977      -6.00000000      -6.00000000      -6.00000000      -6.00000000      -6.00000000      -6.00000000      -6.00000000      -6.00000000      -6.00000000      -6.00000000      -6.00000000      -6.00000000      -6.00000000      -6.00000000      -6.00000000      -6.00000000      -6.00000000      -6.00000000      -6.00000000      -6.00000000      -6.00000000      -6.00000000      -6.00000000      -6.00000000      -6.00000000      -6.00000000      -6.00000000      -6.00000000      -6.00000000      -6.00000000      -6.00000000      -6.00000000      -6.00000000      -6.00000000      -6.00000000      -6.00000000      -6.00000000      -6.00000000      -6.00000000      -6.00000000      -6.00000000      -6.00000000      -6.00000000      -6.00000000      -6.00000000      -6.00000000      -6.00000000      -6.00000000      -6.00000000      -6.00000000      -6.00000000      -6.00000000      -6.00000000      -6.00000000      -6.00000000      -6.00000000      -6.00000000      -6.00000000      -6.00000000      -6.00000000      -6.00000000      -6.00000000      -6.00000000      -6.00000000      -6.00000000      -6.00000000      -6.00000000      -6.00000000      -6.00000000      -6.00000000      -5.98999977      -5.98999977      -5.98999977      -6.00000000      -6.00000000      -6.00000000      -6.00000000      -6.00000000      -6.00000000      -6.00000000      -6.00000000      -6.00000000      -6.00000000      -6.00000000      -6.00000000      -6.00000000      -6.00000000      -6.00000000      -6.00000000      -6.00000000      -6.00000000      -6.00000000      -6.00000000      -6.00000000      -6.00000000      -6.00000000      -6.00000000      -6.00000000      -6.00000000      -6.00000000      -6.00000000      -6.00000000      -6.00000000      -6.00000000      -6.00000000      -6.00000000      -6.00000000      -6.00000000      -6.00000000      -6.00000000      -6.00000000      -6.00000000      -6.00000000      -6.00000000      -6.00000000      -6.00000000      -6.00000000      -6.00000000      -6.00000000      -6.00000000      -6.00000000      -6.00000000      -6.00000000
        -6.00000000      -6.00000000      -6.00000000      -6.00000000      -6.00000000      -6.00000000      -6.00000000      -6.00000000      -6.00000000      -6.00000000      -5.98999977      -5.98999977      -5.98999977      -5.98999977      -5.98999977      -5.98999977      -5.98999977      -6.00000000      -6.00000000      -6.00000000      -6.00000000      -6.00000000      -6.00000000      -6.00000000      -6.00000000      -6.00000000      -6.00000000      -6.00000000      -6.00000000      -6.00000000      -6.00000000      -6.00000000      -6.00000000      -6.00000000      -6.00000000      -6.00000000      -6.00000000      -6.00000000      -6.00000000      -6.00000000      -6.00000000      -6.00000000      -6.00000000      -6.00000000      -6.00000000      -6.00000000      -6.00000000      -6.00000000      -6.00000000      -6.00000000      -6.00000000      -6.00000000      -6.00000000      -6.00000000      -6.00000000      -6.00000000      -6.00000000      -6.00000000      -6.00000000      -6.00000000      -6.00000000      -6.00000000      -6.00000000      -6.00000000      -6.00000000      -6.00000000      -6.00000000      -6.00000000      -6.00000000      -6.00000000      -6.00000000      -6.00000000      -6.00000000      -6.00000000      -6.00000000      -6.00000000      -6.00000000      -6.00000000      -6.00000000      -6.00000000      -6.00000000      -6.00000000      -6.00000000      -6.00000000      -6.00000000      -6.00000000      -6.00000000      -5.98999977      -5.98999977      -5.98999977      -5.98999977      -6.00000000      -6.00000000      -6.00000000      -6.00000000      -6.00000000      -6.00000000      -6.00000000      -6.00000000      -6.00000000      -6.00000000      -6.00000000      -6.00000000      -6.00000000      -6.00000000      -6.00000000      -6.00000000      -6.00000000      -6.00000000      -6.00000000      -6.00000000      -6.00000000      -6.00000000      -6.00000000      -6.00000000      -6.00000000      -6.00000000      -6.00000000      -6.00000000      -6.00000000      -6.00000000      -6.00000000      -6.00000000      -6.00000000      -6.00000000      -6.00000000      -6.00000000      -6.00000000      -6.00000000      -6.00000000      -6.00000000      -6.00000000      -6.00000000      -6.00000000      -6.00000000      -6.00000000      -6.00000000      -6.00000000      -6.00000000      -6.00000000
        -6.00000000      -6.00000000      -6.00000000      -6.00000000      -6.00000000      -6.00000000      -6.00000000      -6.00000000      -6.00000000      -6.00000000      -6.00000000      -5.98999977      -5.98999977      -5.98999977      -5.98999977      -5.98999977      -6.00000000      -6.00000000      -6.00000000      -6.00000000      -6.00000000      -6.00000000      -6.00000000      -6.00000000      -6.00000000      -6.00000000      -6.00000000      -6.00000000      -6.00000000      -6.00000000      -6.00000000      -6.00000000      -6.00000000      -6.00000000      -6.00000000      -6.00000000      -6.00000000      -6.00000000      -6.00000000      -6.00000000      -6.00000000      -6.00000000      -6.00000000      -6.00000000      -6.00000000      -6.00000000      -6.00000000      -6.00000000      -6.00000000      -6.00000000      -6.00000000      -6.00000000      -6.00000000      -6.00000000      -6.00000000      -6.00000000      -6.00000000      -6.00000000      -6.00000000      -6.00000000      -6.00000000      -6.00000000      -6.00000000      -6.00000000      -6.00000000      -6.00000000      -6.00000000      -6.00000000      -6.00000000      -6.00000000      -6.00000000      -6.00000000      -6.00000000      -6.00000000      -6.00000000      -6.00000000      -6.00000000      -6.00000000      -6.00000000      -6.00000000      -6.00000000      -6.00000000      -6.00000000      -6.00000000      -6.00000000      -6.00000000      -6.00000000      -5.98999977      -5.98999977      -5.98999977      -5.98999977      -5.98999977      -6.00000000      -6.00000000      -6.00000000      -6.00000000      -6.00000000      -6.00000000      -6.00000000      -6.00000000      -6.00000000      -6.00000000      -6.00000000      -6.00000000      -6.00000000      -6.00000000      -6.00000000      -6.00000000      -6.00000000      -6.00000000      -6.00000000      -6.00000000      -6.00000000      -6.00000000      -6.00000000      -6.00000000      -6.00000000      -6.00000000      -6.00000000      -6.00000000      -6.00000000      -6.00000000      -6.00000000      -6.00000000      -6.00000000      -6.00000000      -6.00000000      -6.00000000      -6.00000000      -6.00000000      -6.00000000      -6.00000000      -6.00000000      -6.00000000      -6.00000000      -6.00000000      -6.00000000      -6.00000000      -6.00000000      -6.00000000
        -6.00000000      -6.00000000      -6.00000000      -6.00000000      -6.00000000      -6.00000000      -6.00000000      -6.00000000      -6.00000000      -6.00000000      -6.00000000      -6.00000000      -6.00000000      -6.00000000      -6.00000000      -6.00000000      -6.00000000      -6.00000000      -6.00000000      -6.00000000      -6.00000000      -6.00000000      -6.00000000      -6.00000000      -6.00000000      -6.00000000      -6.00000000      -6.00000000      -6.00000000      -6.00000000      -6.00000000      -6.00000000      -6.00000000      -6.00000000      -6.00000000      -6.00000000      -6.00000000      -6.00000000      -6.00000000      -6.00000000      -6.00000000      -6.00000000      -6.00000000      -6.00000000      -6.00000000      -6.00000000      -6.00000000      -6.00000000      -6.00000000      -6.00000000      -6.00000000      -6.00000000      -6.00000000      -6.00000000      -6.00000000      -6.00000000      -6.00000000      -6.00000000      -6.00000000      -6.00000000      -6.00000000      -6.00000000      -6.00000000      -6.00000000      -5.98999977      -6.00000000      -6.00000000      -6.00000000      -6.00000000      -6.00000000      -6.00000000      -6.00000000      -6.00000000      -6.00000000      -6.00000000      -6.00000000      -6.00000000      -6.00000000      -6.00000000      -6.00000000      -6.00000000      -6.00000000      -6.00000000      -6.00000000      -6.00000000      -6.00000000      -5.98999977      -5.98999977      -5.98999977      -5.98999977      -5.98999977      -5.98999977      -5.98999977      -6.00000000      -6.00000000      -6.00000000      -6.00000000      -6.00000000      -6.00000000      -6.00000000      -6.00000000      -6.00000000      -6.00000000      -6.00000000      -6.00000000      -6.00000000      -6.00000000      -6.00000000      -6.00000000      -6.00000000      -6.00000000      -6.00000000      -6.00000000      -6.00000000      -6.00000000      -6.00000000      -6.00000000      -6.00000000      -6.00000000      -6.00000000      -6.00000000      -6.00000000      -6.00000000      -6.00000000      -6.00000000      -6.00000000      -6.00000000      -6.00000000      -6.00000000      -6.00000000      -6.00000000      -6.00000000      -6.00000000      -5.98999977      -5.98999977      -6.00000000      -6.00000000      -6.00000000      -6.00000000      -6.00000000
        -6.00000000      -6.00000000      -6.00000000      -6.00000000      -6.00000000      -6.00000000      -6.00000000      -6.00000000      -6.00000000      -6.00000000      -6.00000000      -6.00000000      -6.00000000      -6.00000000      -6.00000000      -6.00000000      -6.00000000      -6.00000000      -6.00000000      -6.00000000      -6.00000000      -6.00000000      -6.00000000      -6.00000000      -6.00000000      -6.00000000      -6.00000000      -6.00000000      -6.00000000      -6.00000000      -6.00000000      -6.00000000      -6.00000000      -6.00000000      -6.00000000      -6.00000000      -6.00000000      -6.00000000      -6.00000000      -6.00000000      -6.00000000      -6.00000000      -6.00000000      -6.00000000      -6.00000000      -6.00000000      -6.00000000      -6.00000000      -6.00000000      -6.00000000      -6.00000000      -6.00000000      -6.00000000      -6.00000000      -6.00000000      -6.00000000      -6.00000000      -6.00000000      -6.00000000      -6.00000000      -6.00000000      -6.00000000      -6.00000000      -6.00000000      -6.00000000      -6.00000000      -6.00000000      -6.00000000      -6.00000000      -6.00000000      -6.00000000      -6.00000000      -6.00000000      -6.00000000      -6.00000000      -5.98999977      -6.00000000      -6.00000000      -6.00000000      -5.98999977      -5.98999977      -6.00000000      -6.00000000      -6.00000000      -6.00000000      -6.00000000      -5.98999977      -5.98999977      -5.98999977      -5.98999977      -5.98999977      -5.98999977      -5.98999977      -6.00000000      -6.00000000      -6.00000000      -6.00000000      -6.00000000      -6.00000000      -6.00000000      -6.00000000      -6.00000000      -6.00000000      -6.00000000      -6.00000000      -6.00000000      -6.00000000      -6.00000000      -6.00000000      -6.00000000      -6.00000000      -6.00000000      -6.00000000      -6.00000000      -6.00000000      -6.00000000      -6.00000000      -6.00000000      -6.00000000      -6.00000000      -6.00000000      -6.00000000      -6.00000000      -6.00000000      -6.00000000      -6.00000000      -6.00000000      -6.00000000      -6.00000000      -6.00000000      -6.00000000      -6.00000000      -6.00000000      -5.98999977      -5.98999977      -5.98999977      -6.00000000      -6.00000000      -6.00000000      -6.00000000
        -6.00000000      -6.00000000      -6.00000000      -6.00000000      -6.00000000      -6.00000000      -6.00000000      -6.00000000      -6.00000000      -6.00000000      -6.00000000      -6.00000000      -6.00000000      -6.00000000      -6.00000000      -6.00000000      -6.00000000      -6.00000000      -6.00000000      -6.00000000      -6.00000000      -6.00000000      -6.00000000      -6.00000000      -6.00000000      -6.00000000      -6.00000000      -6.00000000      -6.00000000      -6.00000000      -6.00000000      -6.00000000      -6.00000000      -6.00000000      -6.00000000      -6.00000000      -6.00000000      -6.00000000      -6.00000000      -6.00000000      -6.00000000      -6.00000000      -6.00000000      -6.00000000      -6.00000000      -6.00000000      -6.00000000      -6.00000000      -6.00000000      -6.00000000      -6.00000000      -6.00000000      -6.00000000      -6.00000000      -6.00000000      -6.00000000      -6.00000000      -6.00000000      -6.00000000      -6.00000000      -6.00000000      -6.00000000      -6.00000000      -6.00000000      -6.00000000      -6.00000000      -5.98999977      -5.98999977      -5.98999977      -6.00000000      -6.00000000      -5.98999977      -5.98999977      -5.98999977      -5.98999977      -5.98999977      -5.98999977      -5.98999977      -5.98999977      -5.98999977      -5.98999977      -5.98999977      -5.98999977      -6.00000000      -5.98999977      -5.98999977      -5.98999977      -5.98999977      -5.98999977      -5.98999977      -5.98999977      -5.98999977      -6.00000000      -6.00000000      -6.00000000      -6.00000000      -6.00000000      -6.00000000      -6.00000000      -6.00000000      -6.00000000      -6.00000000      -6.00000000      -6.00000000      -6.00000000      -6.00000000      -6.00000000      -6.00000000      -6.00000000      -6.00000000      -6.00000000      -6.00000000      -6.00000000      -6.00000000      -6.00000000      -6.00000000      -6.00000000      -6.00000000      -6.00000000      -6.00000000      -6.00000000      -6.00000000      -6.00000000      -6.00000000      -6.00000000      -6.00000000      -6.00000000      -6.00000000      -6.00000000      -6.00000000      -6.00000000      -6.00000000      -6.00000000      -5.98999977      -5.98999977      -5.98999977      -6.00000000      -6.00000000      -6.00000000      -6.00000000
        -6.00000000      -6.00000000      -6.00000000      -6.00000000      -6.00000000      -6.00000000      -6.00000000      -6.00000000      -6.00000000      -6.00000000      -6.00000000      -6.00000000      -6.00000000      -6.00000000      -6.00000000      -6.00000000      -6.00000000      -6.00000000      -6.00000000      -6.00000000      -6.00000000      -6.00000000      -6.00000000      -6.00000000      -6.00000000      -6.00000000      -6.00000000      -6.00000000      -6.00000000      -6.00000000      -6.00000000      -6.00000000      -6.00000000      -6.00000000      -6.00000000      -6.00000000      -6.00000000      -6.00000000      -6.00000000      -6.00000000      -6.00000000      -6.00000000      -6.00000000      -6.00000000      -6.00000000      -6.00000000      -6.00000000      -6.00000000      -6.00000000      -6.00000000      -6.00000000      -6.00000000      -6.00000000      -6.00000000      -6.00000000      -6.00000000      -6.00000000      -6.00000000      -6.00000000      -6.00000000      -6.00000000      -6.00000000      -6.00000000      -6.00000000      -6.00000000      -6.00000000      -5.98999977      -5.98999977      -5.98999977      -5.98999977      -5.98999977      -5.98999977      -5.98999977      -5.98999977      -5.98999977      -5.98999977      -5.98999977      -5.98999977      -5.98999977      -5.98999977      -5.98999977      -5.98999977      -5.98999977      -5.98999977      -5.98999977      -5.98999977      -5.98999977      -5.98999977      -5.98999977      -5.98999977      -6.00000000      -6.00000000      -6.00000000      -6.00000000      -6.00000000      -6.00000000      -6.00000000      -6.00000000      -6.00000000      -6.00000000      -6.00000000      -6.00000000      -6.00000000      -6.00000000      -6.00000000      -6.00000000      -6.00000000      -6.00000000      -6.00000000      -6.00000000      -6.00000000      -6.00000000      -6.00000000      -6.00000000      -6.00000000      -6.00000000      -6.00000000      -6.00000000      -6.00000000      -6.00000000      -6.00000000      -6.00000000      -6.00000000      -6.00000000      -6.00000000      -6.00000000      -6.00000000      -6.00000000      -6.00000000      -6.00000000      -6.00000000      -6.00000000      -6.00000000      -5.98999977      -5.98999977      -6.00000000      -6.00000000      -6.00000000      -6.00000000      -6.00000000