# File generated by Flopy version 3.9.2 on 06/10/2025 at 16:30:20.
BEGIN options
  SAVE_FLOWS
  SAVE_SPECIFIC_DISCHARGE
  SAVE_SATURATION
END options

BEGIN griddata
  icelltype
    CONSTANT  0
  k  LAYERED
    INTERNAL  FACTOR  1.0
      7.25025675E-05  3.24091343E-05  5.86016540E-07  6.13759198E-07  6.73585873E-07  9.79642376E-05  9.79642376E-05  9.79642376E-05  9.79642376E-05  9.79642376E-05  9.79642376E-05  9.79642376E-05  9.79642376E-05  9.79642376E-05  9.79642376E-05  9.79642376E-05  8.75253590E-07  8.95397477E-07  1.02963259E-06  1.12379155E-06  1.05739252E-06  7.54797384E-07  6.12359372E-07  2.49227378E-05  4.16762341E-05  6.48512869E-05  7.84446820E-05  8.62619199E-05       0.00289931       0.00746601       0.01400334       0.01577739       0.01740048       0.02710344       0.02017523       0.02986842       0.00790398       0.00142183  6.26295587E-05  6.09669842E-05  3.24095672E-05  2.26045231E-05  1.74373527E-05  1.25193328E-05  1.19970309E-06  1.28909585E-06  1.49729328E-06  1.59227284E-06  1.50453627E-06  1.60579600E-06  1.64329094E-06  9.79642376E-05  9.79642376E-05  9.79642376E-05  9.79642376E-05  9.79642376E-05  5.92196329E-06  5.76770708E-06  6.16026591E-06  4.73723048E-06  4.51684400E-06  4.17602450E-06  3.87657155E-06  3.40088491E-06  2.84119869E-06  2.67641394E-06  2.39334122E-06  1.90415881E-06  1.24493658E-06  8.58290718E-07  7.63322930E-07  5.81539325E-07  4.98341706E-07  5.26344991E-07  5.70705026E-07  7.21885044E-07  8.63745697E-07  5.85564703E-05  1.64486482E-04  1.80371819E-04  1.75352587E-04  2.71598168E-04  3.48995032E-04  5.26513846E-04  5.95377176E-04  5.94815647E-04  4.95858840E-04  4.87337762E-04  5.58818574E-04  4.22186393E-04  3.10996693E-04  3.05093621E-04  2.91239790E-04  2.67022901E-04  2.47257791E-04  2.28422927E-04  2.23323848E-04  1.58319439E-04  9.67554879E-05  4.42530873E-05  5.44725026E-06  3.58412535E-06  1.89301500E-06  1.02964816E-06  6.21579659E-07  4.35759858E-07  4.05487242E-07  4.23229977E-07  9.79642376E-05  9.79642376E-05  9.79642376E-05  9.79642376E-05  9.79642376E-05  9.79642376E-05  9.79642376E-05  9.79642376E-05  1.35520122E-06  1.34575748E-06  1.39855217E-06  1.35202299E-06  1.29691216E-06  6.90813249E-05  5.97616563E-05  4.04402999E-05  4.71091880E-05  6.54940159E-05  7.29068488E-05  1.32967398E-06  1.17978630E-06  1.20909522E-06  1.02677905E-06  8.93640447E-07  8.43989881E-07  8.23159439E-07  8.65896823E-07  7.94946970E-07  7.02628768E-07  5.68833002E-07  4.19530664E-07  3.43136634E-07
      7.49925093E-05  6.30427967E-05  5.35046383E-05  8.48425316E-07  8.81272683E-07  1.07180335E-06  9.79642376E-05  9.79642376E-05  9.79642376E-05  9.79642376E-05  9.79642376E-05  9.79642376E-05  9.79642376E-05  9.79642376E-05  9.79642376E-05  9.79642376E-05  7.86080079E-07  8.21952824E-07  9.41418762E-07  1.05712229E-06  9.00327734E-07  6.93615448E-07  6.15146860E-07  4.12798254E-05  4.44192265E-05  4.66783276E-05  5.79748994E-05  8.81672822E-05       0.00181510       0.00227719       0.00778243       0.00597248       0.01500742       0.02536423       0.04314740       0.02353976       0.00845840       0.00220677  6.73925242E-05  6.12992008E-05  3.53685609E-05  2.40259360E-05  1.53641267E-05  1.22130052E-06  1.37334405E-06  1.53225722E-06  1.68001168E-06  1.73929220E-06  1.61826767E-06  1.88413833E-06  2.17904108E-06  2.34553863E-06  2.67062455E-06  3.38611494E-06  5.12348697E-06  5.76316597E-06  5.13224813E-06  5.29855379E-06  5.60091576E-06  4.76511514E-06  4.33976129E-06  4.61554600E-06  4.65342919E-06  3.74200613E-06  2.98220039E-06  2.53402732E-06  2.53968460E-06  2.00330396E-06  1.38462065E-06  9.44077897E-07  7.21165691E-07  5.23499182E-07  4.70942865E-07  4.62480841E-07  5.58788201E-07  6.89682679E-07  8.20891273E-07  5.10131831E-05  1.25875042E-04  1.30394852E-04  1.75562018E-04  2.85199872E-04  3.95330600E-04  4.76391579E-04  5.78004285E-04  5.87944989E-04  4.46474151E-04  3.53914103E-04  3.20451858E-04  2.96064012E-04  2.30174352E-04  2.24370422E-04  2.06483295E-04  2.05966135E-04  1.41681419E-04  1.30220287E-04  1.19222343E-04  7.68405880E-05  3.51679082E-05  3.78138211E-05  3.13776036E-06  2.62033109E-06  1.89929483E-06  1.01333296E-06  7.05510558E-07  5.69704071E-07  5.23306255E-07  4.52457641E-07  4.69857923E-07  9.79642376E-05  9.79642376E-05  9.79642376E-05  9.79642376E-05  9.79642376E-05  9.79642376E-05  9.79642376E-05  1.30602223E-06  1.34219260E-06  1.54300506E-06  1.56457179E-06  1.48091578E-06  3.31813098E-05  1.43262639E-06  3.28914139E-05  1.71747672E-06  1.66434222E-06  1.55656835E-06  1.60573336E-06  1.40946599E-06  1.40180839E-06  1.23739846E-06  1.09879920E-06  9.56203394E-07  9.14384202E-07  1.04146091E-06  8.96651841E-07  7.22978086E-07  5.23206722E-07  4.18250323E-07  3.17828693E-07
      9.64585197E-05  8.13880542E-05  9.84947183E-05  5.35462132E-05  1.03398258E-06  1.10253859E-06  1.45102206E-06  1.79273934E-06  9.79642376E-05  9.79642376E-05  9.79642376E-05  9.79642376E-05  9.79642376E-05  9.79642376E-05  9.79642376E-05  9.79642376E-05  8.19629577E-07  8.12111693E-07  8.44319686E-07  1.04729395E-06  9.46692808E-07  7.89804574E-07  2.29484158E-05  2.43639388E-05  6.74253386E-07  3.48481954E-05  4.31215194E-05  8.04932483E-07  8.69158839E-07  9.83112914E-05       0.00449168       0.00561509       0.01242271       0.00830192       0.02681277       0.00995580       0.00474966  9.21277242E-05  7.49496830E-05  6.99308657E-05  3.62477185E-05  2.53662565E-05  1.63624682E-05  1.31756042E-06  1.58299895E-06  1.74012450E-06  1.99705141E-06  2.06072127E-06  1.73540820E-06  1.83344935E-06  2.26339262E-06  2.75912362E-06  3.22322330E-06  3.89153411E-06  5.07441700E-06  5.10876271E-06  4.75658271E-06  5.54625376E-06  6.49479307E-06  5.71481087E-06  5.17996796E-06  5.42911448E-06  5.19519517E-06  3.54041913E-06  2.89643936E-06  2.30526007E-06  2.00364184E-06  1.68860879E-06  1.24630947E-06  8.08875768E-07  6.26786118E-07  4.87628142E-07  4.61261521E-07  5.25232167E-07  6.40863561E-07  8.01877661E-07  8.83092980E-07  9.65825507E-07  6.61664453E-05  9.78550888E-05  1.28659667E-04  2.12057348E-04  2.93633348E-04  4.30689339E-04  5.26573567E-04  5.37468819E-04  3.96346906E-04  2.71533907E-04  2.56493397E-04  2.80101842E-04  2.20149203E-04  2.00607275E-04  1.75458190E-04  1.20582059E-04  1.08863460E-04  7.70969273E-05  3.96204669E-05  3.95968927E-05  4.27008235E-05  4.88999758E-05  2.02073352E-06  1.60596539E-06  1.12200871E-06  1.03900504E-06  1.00676164E-06  8.32899218E-07  6.74913906E-07  6.10527593E-07  6.42398618E-07  9.79642376E-05  9.79642376E-05  9.79642376E-05  9.79642376E-05  9.79642376E-05  9.79642376E-05  9.79642376E-05  1.46457910E-06  1.63006166E-06  1.82590702E-06  1.80276049E-06  1.59785975E-06  1.43820523E-06  1.63229333E-06  1.78840060E-06  2.00892373E-06  1.99016949E-06  1.90628873E-06  1.68969939E-06  1.52003759E-06  1.46392006E-06  1.30613773E-06  1.23045663E-06  1.11679788E-06  1.02831564E-06  9.39060214E-07  8.77461844E-07  7.12434712E-07  5.11113569E-07  4.02761316E-07  2.90327364E-07
      1.22577621E-04  1.49891945E-04  1.18045507E-04  9.22326435E-05  4.13371636E-05  3.66944187E-05  1.38664541E-06  1.69423265E-06  1.88912986E-06  2.21245955E-06  9.79642376E-05  9.79642376E-05  9.79642376E-05  9.79642376E-05  9.79642376E-05  1.12104988E-06  1.02509057E-06  9.64553578E-07  9.02588454E-07  9.49588070E-07  1.02589502E-06  9.77750460E-07  8.22588163E-07  8.25030611E-07  7.44153624E-07  6.86252520E-07  6.90310628E-07  8.93369702E-07  9.07661445E-07  9.42564043E-07  8.18129338E-05       0.00141143       0.00288943       0.01208047       0.00919461       0.00536405  1.09983193E-04  7.80596383E-05  7.22435580E-05  7.35571957E-05  3.06351467E-05  1.90355349E-05  1.11530039E-06  1.41499834E-06  1.73632304E-06  1.94913378E-06  2.15726777E-06  2.24042878E-06  1.93560663E-06  1.92367906E-06  2.28712861E-06  2.81767916E-06  3.03876982E-06  3.51118547E-06  4.60429737E-06  5.17341505E-06  4.89817558E-06  5.73476291E-06  7.10104177E-06  6.24308450E-06  6.10422285E-06  6.30817021E-06  6.04172101E-06  3.99992041E-06  2.91666220E-06  1.97760392E-06  1.65631400E-06  1.28727436E-06  9.58268743E-07  6.82650352E-07  5.19035268E-07  4.96092355E-07  5.14777014E-07  6.42508780E-07  7.46577030E-07  8.15867111E-07  9.24543201E-07  3.59248297E-05  7.73740321E-05  1.20782679E-04  9.95848459E-05  1.81292489E-04  2.87557312E-04  4.04724939E-04  6.05663110E-04  4.93946369E-04  3.31474672E-04  2.92812940E-04  2.71162833E-04  2.05201330E-04  1.52449327E-04  1.49358792E-04  9.29477756E-05  1.22968515E-04  7.43897763E-05  3.42804306E-05  1.09646146E-06  1.17293041E-06  1.36425115E-06  1.41304952E-06  1.12103123E-06  8.42329882E-07  8.18886917E-07  6.50153765E-07  9.69387997E-07  1.22625352E-06  1.18320247E-06  1.10766484E-06  1.13230965E-06  1.45648414E-06  9.79642376E-05  9.79642376E-05  9.79642376E-05  9.79642376E-05  9.79642376E-05  1.92240100E-06  1.98017779E-06  2.15465093E-06  2.25103850E-06  2.11981023E-06  1.72490434E-06  1.58898274E-06  1.68714587E-06  2.00573345E-06  2.35172342E-06  2.15005616E-06  1.87492117E-06  1.78809557E-06  1.48651827E-06  1.33203469E-06  1.29638806E-06  1.26108625E-06  1.16392744E-06  1.09659504E-06  9.87586191E-07  8.03178125E-07  6.78285630E-07  1.06812404E-05  3.79265515E-07  6.42149644E-06
      2.10395374E-04  2.06647994E-04  2.25901444E-04  1.11336594E-04  7.27681836E-05  6.03608387E-05  1.20563038E-06  1.31978629E-06  1.42440172E-06  1.99161241E-06  2.17557954E-06  9.79642376E-05  9.79642376E-05  1.90588014E-06  1.60412196E-06  1.18227786E-06  1.14461159E-06  1.08636459E-06  1.03006380E-06  1.04627725E-06  1.11646341E-06  1.22583992E-06  9.86315172E-07  9.79642376E-05  9.79642376E-05  9.79642376E-05  9.79642376E-05  9.79642376E-05  9.79642376E-05  1.04349488E-06  1.05765025E-06  9.77473101E-05  1.24079437E-04  1.43751837E-04  1.17463947E-04  1.00535559E-04  7.74964647E-05  6.29451315E-05  6.41969891E-05  6.35742617E-05  7.52241135E-07  9.58536248E-07  1.20051720E-06  1.67658595E-06  1.98031330E-06  1.95286543E-06  2.17498700E-06  2.59274793E-06  2.26532734E-06  2.30806404E-06  2.64856521E-06  2.72554303E-06  2.63693460E-06  2.92370032E-06  3.45380158E-06  4.42952341E-06  4.94452524E-06  5.50702998E-06  6.34094749E-06  6.15591352E-06  5.69888425E-06  5.38610630E-06  4.26886436E-06  3.33407843E-06  2.57934948E-06  1.80435302E-06  1.36818153E-06  1.15839930E-06  8.94795903E-07  7.80431208E-07  5.81029553E-07  5.23421193E-07  5.63873300E-07  6.35030915E-07  7.19548723E-07  8.31360182E-07  9.28806003E-07  1.04531080E-06  7.65494478E-05  1.11259033E-04  1.40669101E-04  1.67409089E-04  3.41398409E-04  6.10878749E-04  6.12322125E-04  4.27420717E-04  3.74698342E-04  3.45201435E-04  1.73097593E-04  1.38841642E-04  8.12952858E-05  7.23018893E-05  3.60705453E-05  5.34914534E-07  5.99741327E-07  3.80317914E-07  4.31396899E-07  4.16814913E-07  5.11775170E-07  7.18485865E-07  5.86014664E-07  4.58014114E-07  4.32205582E-07  7.03481703E-07  8.74064995E-07  1.35690766E-06  1.55861221E-06  1.57056650E-06  2.24187374E-06  2.56332532E-06  3.05192498E-06  9.79642376E-05  9.79642376E-05  3.06096558E-06  3.04377636E-06  2.89768604E-06  2.75645402E-06  2.90649291E-06  2.98725445E-06  2.76764513E-06  2.14306215E-06  1.89626098E-06  1.74589911E-06  1.92101265E-06  2.07008202E-06  2.01847956E-06  1.60589275E-06  1.71299473E-06  1.51370148E-06  1.38947087E-06  1.33634433E-06  1.21206301E-06  1.30005924E-06  1.19793651E-06  5.17031767E-05  3.50065529E-05  1.40541961E-05  9.55387986E-06  5.92525021E-06  4.64542291E-06
      2.68822594E-04  2.62973568E-04  1.98357622E-04  1.76472240E-04  1.33790163E-04  1.04969869E-04  4.16471776E-05  1.00988791E-06  1.06094876E-06  1.41104749E-06  1.65299582E-06  1.75878608E-06  1.70032024E-06  1.75984269E-06  1.53452095E-06  1.37987104E-06  1.28151930E-06  1.17930631E-06  1.14695081E-06  1.19105425E-06  1.15670446E-06  9.79642376E-05  9.79642376E-05  9.79642376E-05  9.79642376E-05  9.79642376E-05  9.79642376E-05  9.79642376E-05  9.79642376E-05  9.79642376E-05  9.79642376E-05  1.16016793E-06  1.26183534E-06  1.54838835E-06  9.79642376E-05  9.79642376E-05  9.79642376E-05  5.96755490E-05  9.79642376E-05  9.79642376E-05  9.79642376E-05  9.79642376E-05  9.79642376E-05  1.55390126E-06  1.69056966E-06  1.86008253E-06  2.31349463E-06  2.64096388E-06  2.87081366E-06  3.09735060E-06  2.74207287E-06  2.39974997E-06  2.10137046E-06  2.45685669E-06  3.12681914E-06  4.17703768E-06  2.63100046E-05  5.79047355E-06  2.33134397E-05  5.71909277E-06  5.08678477E-06  4.35500533E-06  3.48139088E-06  2.61511900E-06  2.10412895E-06  1.59401623E-06  1.18452328E-06  1.02076831E-06  1.02193178E-06  8.83331836E-07  6.83791939E-07  6.49500009E-07  7.62903994E-07  8.55636188E-07  9.53971153E-07  9.39342499E-07  9.92009177E-07  1.04701871E-06  1.13146634E-04  1.04089137E-04  8.65710099E-05  1.75888810E-04  3.69087153E-04  5.10430778E-04  6.80452678E-04  4.33378038E-04  3.03450652E-04  2.64215079E-04  2.65541923E-04  9.77844029E-05  4.13819944E-05  4.97657084E-07  6.32440901E-07  4.98172085E-07  4.87799184E-07  3.70021183E-07  3.70696455E-07  3.96477446E-07  3.76447190E-07  4.44034242E-07  4.56614259E-07  1.63661781E-07  1.37391581E-07  3.76633636E-07  5.48725382E-07  1.16934973E-06  1.37016855E-06  1.94773247E-06  4.42199052E-06  4.53769144E-06  5.58130978E-06  4.60613728E-06  4.97121437E-06  4.06365689E-06  4.86699901E-06  4.89157401E-06  4.45692513E-06  3.88783747E-06  3.98169777E-06  3.14296958E-05  2.69156840E-06  2.35918901E-06  1.94597328E-06  1.64124890E-06  1.55728355E-06  1.46759248E-06  1.47392416E-06  1.43326429E-06  1.43403088E-06  1.40146301E-06  9.79642376E-05  9.79642376E-05  9.79642376E-05  1.40732561E-06  1.04591516E-06  3.33794815E-05  2.73674323E-05  1.95560842E-05  1.15612147E-05  9.29536054E-06
      2.72356527E-04  3.12318763E-04  2.34081221E-04  1.93329295E-04  1.85544894E-04  1.32542540E-04  8.60648215E-05  4.07312255E-05  9.22381275E-07  1.16761828E-06  1.26711041E-06  1.46898992E-06  1.47170135E-06  1.59684259E-06  1.59464003E-06  1.55935857E-06  1.36919937E-06  1.15624880E-06  1.07669075E-06  1.10959650E-06  9.79642376E-05  9.79642376E-05  9.79642376E-05  9.79642376E-05  9.79642376E-05  9.79642376E-05  9.79642376E-05  9.79642376E-05  9.79642376E-05  9.79642376E-05  9.79642376E-05  9.79642376E-05  9.79642376E-05  9.79642376E-05  9.79642376E-05  9.79642376E-05  9.79642376E-05  9.79642376E-05  9.79642376E-05  9.79642376E-05  9.79642376E-05  9.79642376E-05  9.79642376E-05  9.79642376E-05  9.79642376E-05  1.81459029E-06  2.40694362E-06  2.78752987E-06  2.88630326E-06  3.08141216E-06  2.75088837E-06  2.33389278E-06  1.99891451E-06  2.18154219E-06  2.72122679E-06  3.22813548E-06  2.59924946E-05  4.94544656E-06  2.15776308E-05  2.08680558E-05  4.31003582E-06  3.54695021E-06  2.51919505E-06  1.87328567E-06  1.47209596E-06  1.32588036E-06  1.07129802E-06  1.01942555E-06  9.80266236E-07  7.71627924E-07  7.69125961E-07  7.83557823E-07  9.73942520E-07  1.15783484E-06  1.15292175E-06  1.06167704E-06  1.12926011E-06  1.26424936E-06  1.11010493E-04  1.59392672E-04  1.31722147E-04  2.22172166E-04  4.12095891E-04  5.47083269E-04  5.23031806E-04  3.16198566E-04  3.01894266E-04  3.30018607E-04  1.42195728E-04  5.06916949E-05  5.57897124E-07  4.60443147E-07  5.73144007E-07  4.32314351E-07  4.37101107E-07  4.71925063E-07  3.51660077E-07  8.93189380E-08  6.95135327E-08  2.50622747E-07  2.59642889E-07  1.87948856E-07  1.03427851E-07  4.11027770E-07  5.53395751E-07  6.63445803E-07  1.79101517E-06  2.57383272E-06  3.15700026E-06  6.77505022E-06  7.79504353E-06  8.08563982E-06  8.59720149E-06  8.29940109E-06  1.00310181E-05  9.47700664E-06  8.68641200E-06  7.40377891E-06  3.24872417E-05  3.36234007E-05  3.10898304E-06  2.54476890E-06  2.01888179E-06  1.66730797E-06  1.30481544E-06  1.37109726E-06  9.79642376E-05  9.79642376E-05  9.79642376E-05  9.79642376E-05  9.79642376E-05  9.79642376E-05  9.79642376E-05  9.79642376E-05  9.79642376E-05  5.01707291E-05  3.58054749E-05  3.42806052E-05  1.94082641E-05  1.49233601E-05
      2.22155752E-04  2.35292187E-04  2.67042691E-04  2.44601106E-04  2.45738105E-04  2.35981439E-04  1.54467896E-04  8.95182529E-05  4.38680945E-05  9.76666911E-07  9.55524683E-07  1.07572328E-06  1.16508249E-06  1.28039528E-06  1.32602588E-06  4.01826946E-05  1.10065994E-04  1.34595075E-06  1.10454062E-06  9.81906624E-07  9.79642376E-05  9.79642376E-05  9.79642376E-05  9.79642376E-05  9.79642376E-05  9.79642376E-05  9.79642376E-05  9.79642376E-05  9.79642376E-05  9.79642376E-05  9.79642376E-05  9.79642376E-05  9.79642376E-05  9.79642376E-05  9.79642376E-05  9.79642376E-05  9.79642376E-05  9.79642376E-05  9.79642376E-05  9.79642376E-05  9.79642376E-05  9.79642376E-05  9.79642376E-05  9.79642376E-05  9.79642376E-05  1.46967909E-06  2.10799340E-06  2.38528673E-06  2.92921959E-06  2.97187557E-06  3.05299000E-06  2.54744918E-06  2.12987220E-06  1.92904531E-06  2.37747054E-06  2.49156892E-06  2.63368856E-05  2.46171894E-05  2.03190848E-05  1.85809131E-05  2.74751233E-06  1.92515145E-05  1.61176933E-06  1.23980578E-06  9.85632937E-07  9.30723957E-07  9.54423626E-07  9.83669338E-07  7.99862391E-07  7.43105431E-07  8.01734075E-07  9.49270543E-07  1.25224926E-06  1.59976855E-06  1.54113809E-06  1.36536551E-06  1.54080521E-06  1.67400356E-06  2.99253385E-04  3.36722704E-04  2.82089633E-04  2.06920959E-04  2.43417526E-04  2.46584532E-04  1.42208989E-06  1.21405867E-06  2.01378134E-04  1.98785609E-04  7.21645047E-05  5.64169113E-07  4.95205825E-07  4.20603897E-07  4.51797689E-07  3.52133924E-07  4.01562687E-07  4.50809864E-07  3.26432371E-07  4.16451797E-08  3.14224096E-08  1.92778174E-07  4.06146683E-07  1.14189710E-07  5.71366634E-08  3.71144267E-07  6.47073534E-07  8.02028921E-07  1.45189301E-06  1.90409810E-06  3.13040800E-06  6.28113685E-06  9.73864462E-06  1.11946256E-05  1.17363479E-05  1.31373017E-05  1.74819288E-05  1.73168955E-05  1.55417147E-05  3.43987485E-05  5.36702792E-05  3.82385551E-05  3.58468697E-06  2.78437733E-06  1.91677600E-06  1.35675259E-06  9.79642376E-05  9.79642376E-05  9.79642376E-05  9.79642376E-05  9.79642376E-05  9.79642376E-05  9.79642376E-05  9.79642376E-05  9.79642376E-05  9.79642376E-05  9.79642376E-05  4.35075926E-05  3.48295725E-05  3.12667071E-05  2.63093789E-05  2.33325900E-05
      1.60838856E-04  1.89008642E-04  1.85018114E-04  1.83799581E-04  2.39916379E-04  1.98349037E-04  1.71147360E-04  9.21004175E-05  8.22992006E-05  7.95815140E-07  7.62789000E-07  9.06260880E-07  1.03214165E-06  1.06771336E-06  1.47455182E-06  4.01333782E-05  5.35187210E-05  1.57277282E-06  1.13893338E-06  9.48747072E-07  9.79642376E-05  9.79642376E-05  9.79642376E-05  9.79642376E-05  9.79642376E-05  9.79642376E-05  9.79642376E-05  9.79642376E-05  9.79642376E-05  9.79642376E-05  9.79642376E-05  9.79642376E-05  9.79642376E-05  9.79642376E-05  9.79642376E-05  9.79642376E-05  9.79642376E-05  9.79642376E-05  9.79642376E-05  9.79642376E-05  9.79642376E-05  9.79642376E-05  9.79642376E-05  9.79642376E-05  9.79642376E-05  9.79642376E-05  1.98605494E-06  2.13371709E-06  2.68782674E-06  3.19392461E-06  3.67982580E-06  3.43504212E-06  2.31257604E-06  1.70984970E-06  1.70579415E-06  3.21285188E-05  5.04738709E-05  2.19671201E-05  2.82592100E-05  1.87166479E-05  4.28639869E-05  2.42474798E-05  1.91541931E-05  8.29605881E-07  7.04577758E-07  7.73835382E-07  8.63213984E-07  8.68828238E-07  8.20030493E-07  8.08100651E-07  8.58726196E-07  1.08439406E-06  1.41158182E-06  1.65659276E-06  1.75455443E-06  1.64309404E-06  1.72613954E-06  1.84944201E-06  4.15603281E-04  5.52182377E-04  2.10948332E-04  2.07129633E-04  2.37373184E-04  1.24831627E-06  1.03395791E-06  8.99198255E-07  8.78054152E-07  8.20332957E-07  7.57243242E-07  6.00519741E-07  4.42676622E-07  3.78465216E-07  3.76964067E-07  3.27495371E-07  3.99348380E-07  3.00197257E-07  3.54381029E-07  3.10602744E-08  2.33709088E-08  7.14321828E-08  5.44077992E-08  2.79471344E-08  2.26812400E-08  3.68970291E-07  4.61971183E-07  5.82002770E-07  1.00959528E-06  1.35930873E-06  2.15759928E-06  3.85518615E-06  7.22573213E-06  8.19759407E-06  1.29458385E-05  1.64438807E-05  5.00580936E-05  5.25705982E-05  4.54800429E-05  6.46008048E-05  5.78074032E-05  3.56907949E-05  3.98848988E-06  2.83302029E-06  2.02893102E-06  1.40001896E-06  9.79642376E-05  9.79642376E-05  9.79642376E-05  9.79642376E-05  9.79642376E-05  9.79642376E-05  9.79642376E-05  9.79642376E-05  9.79642376E-05  9.79642376E-05  9.79642376E-05  4.29912361E-05  3.61433049E-05  2.84878752E-05  2.38742869E-05  1.95969187E-05
      1.13735092E-04  1.17193318E-04  1.18216754E-04  1.62468874E-04  1.67753009E-04  1.53944275E-04  1.16209099E-04  1.14229108E-04  8.07205724E-05  8.32957448E-05  6.63995252E-07  7.53712470E-07  8.67384188E-07  2.65640410E-05  2.67800897E-05  5.77259525E-05  3.88644512E-05  1.61601747E-06  1.30102148E-06  1.07312337E-06  9.79642376E-05  9.79642376E-05  9.79642376E-05  9.79642376E-05  9.79642376E-05  9.79642376E-05  9.79642376E-05  9.79642376E-05  9.79642376E-05  9.79642376E-05  9.79642376E-05  9.79642376E-05  9.79642376E-05  9.79642376E-05  9.79642376E-05  9.79642376E-05  9.79642376E-05  9.79642376E-05  9.79642376E-05  9.79642376E-05  9.79642376E-05  9.79642376E-05  9.79642376E-05  9.79642376E-05  9.79642376E-05  9.79642376E-05  9.79642376E-05  2.43191926E-06  2.22644462E-06  3.10513406E-06  4.38082952E-06  4.15363411E-06  2.72735929E-06  3.33960306E-05  2.85241240E-05  4.67951468E-05  4.50076877E-05  3.29259274E-05  3.68630645E-05  4.40426920E-05  4.14349124E-05  4.12830232E-05  1.91255112E-05  6.37002017E-07  5.32391084E-07  6.36829554E-07  7.63458729E-07  8.67936535E-07  9.03076170E-07  1.02974366E-06  9.77000468E-07  1.13157819E-06  1.48140953E-06  1.71485181E-06  1.65828078E-06  1.52670043E-06  1.51179847E-06  2.94205500E-04  4.79865936E-04  5.70001779E-04  4.93970641E-04  2.19940775E-04  2.47527991E-04  1.01447029E-06  8.98734129E-07  7.67962717E-07  8.10409631E-07  8.25901225E-07  8.13102645E-07  4.43999710E-07  3.92745733E-07  3.00502194E-07  2.97453795E-07  2.86789088E-07  3.16110402E-07  2.56929525E-07  3.50187008E-07  1.58382463E-08  1.56078777E-08  2.52771031E-08  1.53388733E-08  2.06195541E-08  1.80866291E-08  3.50099555E-07  3.69800688E-07  7.79403877E-07  8.87196222E-07  1.26692032E-06  1.73636931E-06  3.20814274E-06  4.32368870E-06  6.25071789E-06  8.44006445E-06  1.43248717E-05  1.22264406E-04  1.14556387E-04  1.10571018E-04  1.10265450E-04  8.82261738E-05  6.39790451E-05  4.60523825E-06  2.58433533E-06  2.08511847E-06  1.57885006E-06  9.79642376E-05  9.79642376E-05  9.79642376E-05  9.79642376E-05  9.79642376E-05  9.79642376E-05  9.79642376E-05  9.79642376E-05  9.79642376E-05  9.79642376E-05  9.79642376E-05  4.23951788E-05  3.68908441E-05  3.01898344E-05  2.20993061E-05  1.90144801E-05
      1.05979445E-04  9.06860587E-05  9.65616709E-05  1.22756450E-04  9.38600497E-05  9.17930083E-05  9.21148094E-05  9.23990301E-05  6.74591429E-05  7.32109547E-05  6.22986420E-07  6.70531392E-07  2.17389043E-05  1.76559606E-05  1.71661868E-05  1.03608022E-06  1.38808537E-06  1.60279933E-06  1.26590362E-06  1.14869442E-06  9.79642376E-05  9.79642376E-05  9.79642376E-05  9.79642376E-05  9.79642376E-05  9.79642376E-05  9.79642376E-05  9.79642376E-05  9.79642376E-05  9.79642376E-05  9.79642376E-05  9.79642376E-05  9.79642376E-05  9.79642376E-05  9.79642376E-05  9.79642376E-05  9.79642376E-05  9.79642376E-05  9.79642376E-05  9.79642376E-05  9.79642376E-05  9.79642376E-05  9.79642376E-05  9.79642376E-05  9.79642376E-05  9.79642376E-05  9.79642376E-05  9.79642376E-05  9.79642376E-05  3.29307045E-06  4.89305239E-06  4.15645309E-06  3.99805722E-05  4.80484778E-05  4.40236217E-05  3.96094729E-05  4.83035583E-05  3.72467948E-05  3.84814448E-05  2.86008362E-05  3.45692497E-05  1.92907555E-05  8.29195585E-07  6.49569813E-07  5.52768881E-07  5.99664588E-07  7.17531066E-07  8.06325602E-07  9.61343403E-07  1.11499742E-06  1.16306899E-06  1.17057414E-06  1.29626335E-06  1.39500912E-06  1.49381788E-06  1.44216392E-06  1.47694811E-06  3.89769615E-04  6.14286517E-04  3.39696504E-04  3.77728866E-04  3.12966673E-04  1.52594614E-04  9.82032930E-07  9.59746671E-07  9.38285666E-07  9.14789553E-07  8.31054422E-07  7.59466332E-07  5.76657840E-07  4.45244723E-07  4.05143368E-07  3.48780759E-07  2.99708347E-07  3.14030103E-07  2.38156630E-07  3.19255918E-07  1.99852046E-08  1.60903308E-08  1.16255183E-09  6.55552768E-09  9.13032672E-09  3.28515881E-07  3.13402523E-07  5.86763008E-07  6.94376695E-07  8.01347994E-07  1.13834369E-06  1.69703799E-06  2.80049130E-06  3.00560828E-06  4.06088930E-06  7.43788132E-06  9.53286235E-06  1.40094009E-04  1.85414174E-04  2.00384093E-04  1.75510388E-04  1.39288386E-04  1.04542793E-04  3.75413438E-05  2.93149842E-05  1.80856273E-06  1.35767050E-06  9.79642376E-05  9.79642376E-05  9.79642376E-05  9.79642376E-05  9.79642376E-05  9.79642376E-05  9.79642376E-05  9.79642376E-05  9.79642376E-05  9.79642376E-05  9.79642376E-05  4.41369275E-06  2.05606357E-05  3.38712453E-05  2.52956524E-05  2.23784318E-05
      9.17804937E-05  8.53418824E-05  6.39043647E-05  7.72269777E-05  7.17254588E-05  7.30568790E-05  7.19157833E-05  7.16331779E-05  5.82897337E-05  2.93447902E-05  5.66803180E-07  5.49712013E-07  2.17090856E-05  1.50944170E-05  5.68592498E-07  9.62359195E-07  1.55798875E-06  1.53334383E-06  1.31099421E-06  9.79642376E-05  9.79642376E-05  9.79642376E-05  9.79642376E-05  9.79642376E-05  9.79642376E-05  9.79642376E-05  9.79642376E-05  9.79642376E-05  9.79642376E-05  9.79642376E-05  9.79642376E-05  9.79642376E-05  9.79642376E-05  9.79642376E-05  9.79642376E-05  9.79642376E-05  9.79642376E-05  9.79642376E-05  9.79642376E-05  9.79642376E-05  9.79642376E-05  9.79642376E-05  9.79642376E-05  9.79642376E-05  9.79642376E-05  9.79642376E-05  9.79642376E-05  9.79642376E-05  9.79642376E-05  9.79642376E-05  4.96613166E-06  4.36025675E-06  3.67383109E-05  5.72484969E-05  5.68291398E-05  5.13174018E-05  5.36809930E-05  5.12826082E-05  3.72218674E-05  3.97125696E-05  3.05510039E-05  1.92459756E-05  1.98029884E-05  2.11432907E-05  2.23676452E-05  2.42757069E-05  5.72806894E-05  4.37819690E-05  1.02247020E-06  1.14971101E-06  1.20229640E-06  1.31807769E-06  1.39940903E-06  1.49277889E-06  1.54960549E-06  1.33835010E-06  1.48910829E-06  1.37617144E-06  1.35208631E-06  1.35928224E-06  1.88951526E-04  1.14257426E-04  1.05823136E-04  1.10403969E-04  1.03793559E-06  1.15663067E-06  1.06558753E-06  9.78972366E-07  7.97087807E-07  5.77210642E-07  6.00777753E-07  6.31470357E-07  4.56620171E-07  3.31340971E-07  4.32906461E-07  2.48017358E-07  3.13443678E-07  3.93042654E-07  3.55696898E-07  4.33517933E-09  2.31059516E-07  2.94931965E-07  3.24421649E-07  5.37850099E-07  7.51893765E-07  8.25321024E-07  1.08827555E-06  1.46817229E-06  1.57533532E-06  2.35805646E-06  3.15601255E-06  4.24818518E-06  4.02996466E-06  7.80234841E-05  2.06305616E-04  2.22868257E-04  2.38928435E-04  2.04202763E-04  1.77249167E-04  1.43990750E-04  7.35241774E-05  5.04684649E-05  3.70704984E-05  2.32507155E-05  1.00046680E-06  9.79642376E-05  9.79642376E-05  9.79642376E-05  9.79642376E-05  9.79642376E-05  9.79642376E-05  9.79642376E-05  9.79642376E-05  9.79642376E-05  9.79642376E-05  4.51382630E-06  2.34146955E-05  3.62524770E-05  2.87088242E-05  2.93932299E-05
      1.15145813E-04  7.73558495E-05  6.85670675E-05  5.61804081E-05  5.08321318E-05  6.34700918E-05  5.25886608E-05  5.25155374E-05  4.00327372E-05  3.82554899E-05  2.02630617E-05  1.85400168E-05  1.55134512E-05  4.59665131E-07  5.00752265E-07  8.12507835E-07  1.21485471E-06  1.27874262E-06  1.19540346E-06  9.79642376E-05  9.79642376E-05  9.79642376E-05  9.79642376E-05  9.79642376E-05  9.79642376E-05  9.79642376E-05  9.79642376E-05  9.79642376E-05  9.79642376E-05  9.79642376E-05  9.79642376E-05  9.79642376E-05  9.79642376E-05  9.79642376E-05  9.79642376E-05  9.79642376E-05  9.79642376E-05  9.79642376E-05  9.79642376E-05  9.79642376E-05  9.79642376E-05  9.79642376E-05  9.79642376E-05  9.79642376E-05  9.79642376E-05  9.79642376E-05  9.79642376E-05  9.79642376E-05  9.79642376E-05  9.79642376E-05  9.79642376E-05  5.24436837E-06  4.58555660E-05  4.84091943E-05  4.91767350E-05  4.75943270E-05  5.18102024E-05  4.40202457E-05  3.79784251E-05  4.34743852E-05  3.26402405E-05  3.65102314E-05  2.34687086E-05  5.33566636E-05  5.81191744E-05  1.03680191E-04  9.92385685E-05  1.09023145E-04  1.29749518E-04  1.18170885E-06  1.37580855E-06  1.43840487E-06  1.31289562E-06  1.20108689E-06  1.23278824E-06  1.23908512E-06  1.43336547E-06  1.23826283E-06  1.18806895E-06  1.20343032E-06  1.32224955E-06  1.30826379E-06  1.29756131E-06  1.25841621E-06  1.26665373E-06  1.29455452E-06  1.30151022E-06  1.10922053E-06  9.71587156E-07  8.54668713E-07  9.79940296E-07  9.67336746E-07  6.34654043E-07  6.57169778E-07  4.44259712E-07  2.42681296E-07  3.84250910E-07  4.56901290E-07  3.61610176E-07  3.16548949E-07  2.77292344E-07  2.84438556E-07  5.84532472E-07  7.69246128E-07  7.79796210E-07  8.46196770E-07  1.05194329E-06  1.47482490E-06  2.07129347E-06  2.74609079E-06  2.55837040E-06  3.16961905E-06  3.41459008E-06  1.64127749E-04  2.35096668E-04  2.56304484E-04  2.29632642E-04  1.98078429E-04  1.90086721E-04  1.67378341E-04  1.07657514E-04  7.16772483E-05  6.19543789E-05  3.73477305E-05  9.66756829E-07  1.22148151E-06  9.79642376E-05  9.79642376E-05  9.79642376E-05  9.79642376E-05  9.79642376E-05  9.79642376E-05  9.79642376E-05  9.79642376E-05  9.79642376E-05  3.67762141E-06  4.51239903E-05  3.83666666E-05  3.83131155E-05  3.87478249E-05