# File generated by Flopy version 3.9.2 on 06/10/2025 at 16:30:19.
BEGIN options
  SAVE_FLOWS
END options

BEGIN dimensions
  MAXBOUND  661
END dimensions

BEGIN period  1
  1 1 1 1
  1 2 1 1
  1 3 1 1
  1 4 1 1
  1 5 1 1
  1 6 1 1
  1 7 1 1
  1 8 1 1
  1 9 1 1
  1 10 1 1
  1 11 1 1
  1 12 1 1
  1 13 1 1
  1 14 1 1
  1 15 1 1
  1 16 1 1
  1 17 1 1
  1 18 1 1
  1 19 1 1
  1 20 1 1
  1 25 1 1
  1 27 1 1
  1 28 1 1
  1 29 1 1
  1 30 1 1
  1 31 1 1
  1 32 1 1
  1 33 1 1
  1 34 1 1
  1 35 1 1
  1 36 1 1
  1 37 1 1
  1 38 1 1
  1 39 1 1
  1 40 1 1
  1 41 1 1
  1 42 1 1
  1 43 1 1
  1 44 1 1
  1 45 1 1
  1 46 1 1
  1 47 1 1
  1 48 1 1
  1 49 1 1
  1 50 1 1
  1 51 1 1
  1 52 1 1
  1 53 1 1
  1 54 1 1
  1 55 1 1
  1 56 1 1
  1 57 1 1
  1 58 1 1
  1 59 1 1
  1 60 1 1
  1 61 1 1
  1 62 1 1
  1 63 1 1
  1 64 1 1
  1 65 1 1
  1 66 1 1
  1 67 1 1
  1 68 1 1
  1 69 1 1
  1 70 1 1
  2 1 1 1
  2 2 1 1
  2 3 1 1
  2 4 1 1
  2 5 1 1
  2 6 1 1
  2 7 1 1
  2 8 1 1
  2 9 1 1
  2 10 1 1
  2 11 1 1
  2 12 1 1
  2 13 1 1
  2 14 1 1
  2 15 1 1
  2 16 1 1
  2 17 1 1
  2 18 1 1
  2 19 1 1
  2 20 1 1
  2 21 1 1
  2 22 1 1
  2 23 1 1
  2 24 1 1
  2 25 1 1
  2 28 1 1
  2 29 1 1
  2 30 1 1
  2 31 1 1
  2 32 1 1
  2 33 1 1
  2 34 1 1
  2 35 1 1
  2 36 1 1
  2 37 1 1
  2 38 1 1
  2 39 1 1
  2 40 1 1
  2 41 1 1
  2 42 1 1
  2 43 1 1
  2 44 1 1
  2 45 1 1
  2 46 1 1
  2 47 1 1
  2 48 1 1
  2 49 1 1
  2 50 1 1
  2 51 1 1
  2 52 1 1
  2 53 1 1
  2 54 1 1
  2 55 1 1
  2 56 1 1
  2 57 1 1
  2 58 1 1
  2 59 1 1
  2 60 1 1
  2 61 1 1
  2 62 1 1
  2 63 1 1
  2 64 1 1
  2 65 1 1
  2 66 1 1
  2 67 1 1
  2 68 1 1
  2 69 1 1
  2 70 1 1
  3 1 1 1
  3 2 1 1
  3 3 1 1
  3 4 1 1
  3 5 1 1
  3 6 1 1
  3 7 1 1
  3 8 1 1
  3 9 1 1
  3 10 1 1
  3 11 1 1
  3 12 1 1
  3 13 1 1
  3 14 1 1
  3 15 1 1
  3 16 1 1
  3 17 1 1
  3 18 1 1
  3 19 1 1
  3 20 1 1
  3 21 1 1
  3 22 1 1
  3 29 1 1
  3 30 1 1
  3 31 1 1
  3 32 1 1
  3 33 1 1
  3 34 1 1
  3 35 1 1
  3 36 1 1
  3 37 1 1
  3 38 1 1
  3 39 1 1
  3 40 1 1
  3 41 1 1
  3 42 1 1
  3 43 1 1
  3 44 1 1
  3 45 1 1
  3 46 1 1
  3 47 1 1
  3 48 1 1
  3 49 1 1
  3 50 1 1
  3 51 1 1
  3 52 1 1
  3 53 1 1
  3 54 1 1
  3 55 1 1
  3 56 1 1
  3 57 1 1
  3 58 1 1
  3 59 1 1
  3 60 1 1
  3 61 1 1
  3 62 1 1
  3 63 1 1
  3 64 1 1
  3 65 1 1
  3 66 1 1
  3 67 1 1
  3 68 1 1
  3 69 1 1
  3 70 1 1
  4 1 1 1
  4 2 1 1
  4 3 1 1
  4 4 1 1
  4 5 1 1
  4 6 1 1
  4 7 1 1
  4 8 1 1
  4 9 1 1
  4 10 1 1
  4 11 1 1
  4 12 1 1
  4 13 1 1
  4 14 1 1
  4 15 1 1
  4 16 1 1
  4 17 1 1
  4 18 1 1
  4 19 1 1
  4 20 1 1
  4 21 1 1
  4 22 1 1
  4 23 1 1
  4 24 1 1
  4 25 1 1
  4 26 1 1
  4 27 1 1
  4 28 1 1
  4 29 1 1
  4 30 1 1
  4 31 1 1
  4 32 1 1
  4 33 1 1
  4 34 1 1
  4 35 1 1
  4 36 1 1
  4 37 1 1
  4 38 1 1
  4 39 1 1
  4 40 1 1
  4 41 1 1
  4 42 1 1
  4 43 1 1
  4 44 1 1
  4 45 1 1
  4 46 1 1
  4 47 1 1
  4 48 1 1
  4 49 1 1
  4 50 1 1
  4 51 1 1
  4 52 1 1
  4 53 1 1
  4 54 1 1
  4 55 1 1
  4 56 1 1
  4 57 1 1
  4 58 1 1
  4 59 1 1
  4 60 1 1
  4 61 1 1
  4 62 1 1
  4 63 1 1
  4 64 1 1
  4 65 1 1
  4 66 1 1
  4 67 1 1
  4 68 1 1
  4 69 1 1
  4 70 1 1
  5 1 1 1
  5 2 1 1
  5 3 1 1
  5 4 1 1
  5 5 1 1
  5 6 1 1
  5 7 1 1
  5 8 1 1
  5 9 1 1
  5 10 1 1
  5 11 1 1
  5 12 1 1
  5 13 1 1
  5 14 1 1
  5 15 1 1
  5 16 1 1
  5 17 1 1
  5 18 1 1
  5 19 1 1
  5 20 1 1
  5 21 1 1
  5 22 1 1
  5 23 1 1
  5 24 1 1
  5 25 1 1
  5 26 1 1
  5 27 1 1
  5 28 1 1
  5 29 1 1
  5 30 1 1
  5 31 1 1
  5 32 1 1
  5 33 1 1
  5 34 1 1
  5 35 1 1
  5 36 1 1
  5 37 1 1
  5 38 1 1
  5 39 1 1
  5 40 1 1
  5 41 1 1
  5 42 1 1
  5 43 1 1
  5 44 1 1
  5 45 1 1
  5 46 1 1
  5 47 1 1
  5 48 1 1
  5 49 1 1
  5 50 1 1
  5 51 1 1
  5 52 1 1
  5 53 1 1
  5 54 1 1
  5 55 1 1
  5 56 1 1
  5 57 1 1
  5 58 1 1
  5 59 1 1
  5 60 1 1
  5 61 1 1
  5 62 1 1
  5 63 1 1
  5 64 1 1
  5 65 1 1
  5 66 1 1
  5 67 1 1
  5 68 1 1
  5 69 1 1
  5 70 1 1
  1 1 140 0
  1 2 140 0
  1 3 140 0
  1 4 140 0
  1 5 140 0
  1 6 140 0
  1 7 140 0
  1 23 140 0
  1 24 140 0
  1 25 140 0
  1 26 140 0
  1 27 140 0
  1 28 140 0
  1 29 140 0
  1 30 140 0
  1 31 140 0
  1 32 140 0
  1 33 140 0
  1 34 140 0
  1 35 140 0
  1 36 140 0
  1 37 140 0
  1 38 140 0
  1 39 140 0
  1 40 140 0
  1 41 140 0
  1 42 140 0
  1 43 140 0
  1 44 140 0
  1 45 140 0
  1 46 140 0
  1 47 140 0
  1 48 140 0
  1 49 140 0
  1 50 140 0
  1 51 140 0
  1 52 140 0
  1 53 140 0
  1 54 140 0
  1 55 140 0
  1 56 140 0
  1 57 140 0
  1 58 140 0
  1 59 140 0
  1 60 140 0
  1 61 140 0
  1 62 140 0
  1 63 140 0
  1 64 140 0
  1 65 140 0
  1 66 140 0
  1 67 140 0
  1 68 140 0
  1 69 140 0
  1 70 140 0
  2 1 140 0
  2 2 140 0
  2 3 140 0
  2 4 140 0
  2 5 140 0
  2 6 140 0
  2 7 140 0
  2 8 140 0
  2 9 140 0
  2 10 140 0
  2 11 140 0
  2 12 140 0
  2 13 140 0
  2 14 140 0
  2 15 140 0
  2 16 140 0
  2 17 140 0
  2 18 140 0
  2 19 140 0
  2 20 140 0
  2 21 140 0
  2 22 140 0
  2 23 140 0
  2 24 140 0
  2 25 140 0
  2 26 140 0
  2 27 140 0
  2 28 140 0
  2 29 140 0
  2 30 140 0
  2 31 140 0
  2 32 140 0
  2 33 140 0
  2 34 140 0
  2 35 140 0
  2 36 140 0
  2 37 140 0
  2 38 140 0
  2 39 140 0
  2 40 140 0
  2 41 140 0
  2 42 140 0
  2 43 140 0
  2 44 140 0
  2 45 140 0
  2 46 140 0
  2 47 140 0
  2 48 140 0
  2 49 140 0
  2 50 140 0
  2 51 140 0
  2 52 140 0
  2 53 140 0
  2 54 140 0
  2 55 140 0
  2 56 140 0
  2 57 140 0
  2 58 140 0
  2 59 140 0
  2 60 140 0
  2 61 140 0
  2 62 140 0
  2 63 140 0
  2 64 140 0
  3 1 140 0
  3 2 140 0
  3 3 140 0
  3 4 140 0
  3 5 140 0
  3 6 140 0
  3 7 140 0
  3 8 140 0
  3 9 140 0
  3 10 140 0
  3 11 140 0
  3 12 140 0
  3 13 140 0
  3 14 140 0
  3 15 140 0
  3 16 140 0
  3 17 140 0
  3 18 140 0
  3 19 140 0
  3 20 140 0
  3 21 140 0
  3 22 140 0
  3 23 140 0
  3 24 140 0
  3 25 140 0
  3 26 140 0
  3 27 140 0
  3 28 140 0
  3 29 140 0
  3 30 140 0
  3 31 140 0
  3 32 140 0
  3 33 140 0
  3 34 140 0
  3 35 140 0
  3 36 140 0
  3 37 140 0
  3 38 140 0
  3 39 140 0
  3 40 140 0
  3 41 140 0
  3 42 140 0
  3 43 140 0
  3 44 140 0
  3 45 140 0
  3 46 140 0
  3 52 140 0
  3 53 140 0
  3 54 140 0
  3 55 140 0
  3 56 140 0
  3 57 140 0
  3 58 140 0
  3 59 140 0
  3 60 140 0
  3 61 140 0
  3 62 140 0
  3 63 140 0
  3 64 140 0
  3 65 140 0
  3 66 140 0
  3 67 140 0
  3 68 140 0
  3 69 140 0
  3 70 140 0
  4 1 140 0
  4 2 140 0
  4 3 140 0
  4 4 140 0
  4 5 140 0
  4 6 140 0
  4 7 140 0
  4 8 140 0
  4 9 140 0
  4 10 140 0
  4 11 140 0
  4 12 140 0
  4 13 140 0
  4 14 140 0
  4 15 140 0
  4 16 140 0
  4 17 140 0
  4 18 140 0
  4 19 140 0
  4 20 140 0
  4 21 140 0
  4 22 140 0
  4 23 140 0
  4 24 140 0
  4 25 140 0
  4 26 140 0
  4 27 140 0
  4 28 140 0
  4 29 140 0
  4 30 140 0
  4 31 140 0
  4 32 140 0
  4 33 140 0
  4 34 140 0
  4 35 140 0
  4 36 140 0
  4 37 140 0
  4 38 140 0
  4 39 140 0
  4 40 140 0
  4 41 140 0
  4 42 140 0
  4 43 140 0
  4 44 140 0
  4 45 140 0
  4 46 140 0
  4 47 140 0
  4 48 140 0
  4 49 140 0
  4 50 140 0
  4 51 140 0
  4 52 140 0
  4 53 140 0
  4 54 140 0
  4 55 140 0
  4 56 140 0
  4 57 140 0
  4 58 140 0
  4 59 140 0
  4 60 140 0
  4 61 140 0
  4 62 140 0
  4 63 140 0
  4 64 140 0
  4 65 140 0
  4 66 140 0
  4 67 140 0
  4 68 140 0
  4 69 140 0
  4 70 140 0
  5 1 140 0
  5 2 140 0
  5 3 140 0
  5 4 140 0
  5 5 140 0
  5 6 140 0
  5 7 140 0
  5 8 140 0
  5 9 140 0
  5 10 140 0
  5 11 140 0
  5 12 140 0
  5 13 140 0
  5 14 140 0
  5 15 140 0
  5 16 140 0
  5 17 140 0
  5 18 140 0
  5 19 140 0
  5 20 140 0
  5 21 140 0
  5 22 140 0
  5 23 140 0
  5 24 140 0
  5 25 140 0
  5 26 140 0
  5 27 140 0
  5 28 140 0
  5 29 140 0
  5 30 140 0
  5 31 140 0
  5 32 140 0
  5 33 140 0
  5 34 140 0
  5 35 140 0
  5 36 140 0
  5 37 140 0
  5 38 140 0
  5 39 140 0
  5 40 140 0
  5 41 140 0
  5 42 140 0
  5 43 140 0
  5 44 140 0
  5 45 140 0
  5 46 140 0
  5 47 140 0
  5 48 140 0
  5 49 140 0
  5 50 140 0
  5 51 140 0
  5 52 140 0
  5 53 140 0
  5 54 140 0
  5 55 140 0
  5 56 140 0
  5 57 140 0
  5 58 140 0
  5 59 140 0
  5 60 140 0
  5 61 140 0
  5 62 140 0
  5 63 140 0
  5 64 140 0
  5 65 140 0
  5 66 140 0
  5 67 140 0
  5 68 140 0
  5 69 140 0
  5 70 140 0
END period  1

