# File generated by Flopy version 3.9.2 on 05/13/2025 at 15:46:12.
BEGIN options
  XT3D_OFF
END options

BEGIN griddata
  diffc
    CONSTANT  1.00000000E-09
  alh
    CONSTANT       1.50000000
  ath1
    CONSTANT       1.50000000
END griddata

