# File generated by Flopy version 3.9.2 on 05/20/2025 at 15:04:41.
BEGIN options
  SCHEME  upstream
END options

