# File generated by Flopy version 3.9.2 on 05/13/2025 at 15:46:12.
BEGIN options
END options

BEGIN packagedata
  GWFHEAD  FILEIN  ../test.hds
  GWFBUDGET  FILEIN  ../test.cbc
END packagedata

