# File generated by Flopy version 3.9.2 on 05/13/2025 at 15:46:12.
BEGIN options
END options

BEGIN timing
  TDIS6  sim_test.tdis
END timing

BEGIN models
  gwt6  gwt-sim_test.nam  gwt-sim_test
END models

BEGIN exchanges
END exchanges

BEGIN solutiongroup  1
  ims6  sim_test.ims  gwt-sim_test
END solutiongroup  1

