# File generated by Flopy version 3.9.1 on 09/05/2025 at 20:14:23.
BEGIN options
END options

BEGIN packages
  OC6  test.oc  oc
  IC6  test.ic  ic
  DIS6  test.dis  dis
  NPF6  test.npf  npf
  CHD6  test.chd  chd_0
  OBS6  test.obs  head_obs
END packages

