ptf ~
# File generated by Flopy version 3.9.1 on 09/05/2025 at 20:14:33.
BEGIN options
  SAVE_FLOWS
  SAVE_SPECIFIC_DISCHARGE
  SAVE_SATURATION
  K33OVERK
END options

BEGIN griddata
  icelltype
    CONSTANT  0
  k  LAYERED
    CONSTANT  ~    k_D2     ~
    CONSTANT  ~    k_D1     ~
    CONSTANT  ~    k_C     ~
    CONSTANT  ~    k_B     ~
    CONSTANT  ~    k_A     ~
  k33  LAYERED
    CONSTANT       ~    k33_D2     ~
    CONSTANT       ~    k33_D1     ~
    CONSTANT       ~    k33_C     ~
    CONSTANT       ~    k33_B     ~
    CONSTANT       ~    k33_A     ~
END griddata

