# File generated by Flopy version 3.9.2 on 06/10/2025 at 11:23:07.
BEGIN options
END options

BEGIN griddata
  strt
    CONSTANT       1.00000000
END griddata

