# File generated by Flopy version 3.9.2 on 06/10/2025 at 11:23:07.
BEGIN options
  DIGITS  5
  PRINT_INPUT
END options

BEGIN continuous  FILEOUT  head_obs_ref.csv
  h1  HEAD  4 26 51
  h2  HEAD  4 34 111
END continuous  FILEOUT  head_obs_ref.csv

