# File generated by Flopy version 3.9.2 on 06/10/2025 at 16:30:30.
BEGIN options
  SAVE_FLOWS
  SAVE_SPECIFIC_DISCHARGE
  SAVE_SATURATION
END options

BEGIN griddata
  icelltype
    CONSTANT  0
  k  LAYERED
    INTERNAL  FACTOR  1.0
      5.99061277E-05  4.00419303E-05  3.12667140E-07  1.97561718E-07  1.55162866E-07  5.55247049E-05  5.55247049E-05  5.55247049E-05  5.55247049E-05  5.55247049E-05  5.55247049E-05  5.55247049E-05  5.55247049E-05  5.55247049E-05  5.55247049E-05  5.55247049E-05  3.31575677E-07  4.65824598E-07  6.06493700E-07  7.67796053E-07  3.85005442E-05  1.52899520E-05  9.94355378E-06  7.32417993E-06  8.89594867E-06  8.80525931E-06  4.94594724E-06  8.02888735E-06  9.49662171E-06  5.91230355E-06  1.93975779E-06  2.07663606E-06  1.87177648E-06  2.15564933E-06  2.54238535E-06  2.30881528E-06  2.32146817E-06  2.66144639E-06  1.53971212E-06  7.48797447E-07  6.27770362E-07  6.72691556E-07  7.05235095E-07  1.10122335E-06  1.84731311E-06  1.62533036E-06  1.54637553E-06  1.19166225E-06  1.13463341E-06  1.14769341E-06  1.22855488E-06  5.55247049E-05  5.55247049E-05  5.55247049E-05  5.55247049E-05  5.55247049E-05  8.06266107E-05  7.02815087E-05  6.82909958E-05  6.14046949E-05  3.87135442E-05  1.59050853E-06  1.82077713E-06  2.88671185E-06  3.86216698E-06  6.17011028E-05  3.01618684E-06  2.34539812E-06  1.36632275E-06  9.48608545E-07  5.14624844E-07  2.66362235E-07  1.96458359E-07  1.63584644E-07  1.40386973E-07  1.30120526E-07  1.28713324E-07  1.20511757E-07  1.49179670E-07  1.03649661E-07  7.79684251E-06  9.04873013E-06  1.95079028E-05  2.39242781E-05  6.36171462E-05  1.02288635E-04  1.49730462E-04  1.48631894E-04  1.39120108E-04  1.25823164E-04  9.28864829E-05  6.42273881E-05  4.58537106E-05  4.32824854E-05  2.97938586E-05  1.86216803E-05  1.41297205E-05  9.84901817E-06  4.98586678E-06  2.19939147E-06  4.01786650E-07  4.16005832E-07  4.53221219E-07  3.75111284E-07  2.04663650E-07  1.35057732E-07  1.32844164E-07  1.46757472E-07  5.55247049E-05  5.55247049E-05  5.55247049E-05  5.55247049E-05  5.55247049E-05  5.55247049E-05  5.55247049E-05  5.55247049E-05  2.74963327E-06  3.51218614E-06  3.64117341E-06  3.51120957E-06  3.38529503E-06  3.46051047E-06  3.92993661E-06  4.11374276E-06  3.58929469E-06  3.16114870E-06  2.69672023E-06  2.50172775E-06  2.41985185E-06  2.67594760E-06  2.47199091E-06  2.48087667E-06  1.89947502E-06  1.45923411E-06  1.15306398E-06  1.00585385E-06  1.03900186E-06  4.89397280E-05  6.75190458E-05  1.01110229E-04
      4.80729286E-05  5.03192168E-05  3.97608716E-07  2.66715716E-07  1.91635820E-07  1.65124163E-07  5.55247049E-05  5.55247049E-05  5.55247049E-05  5.55247049E-05  5.55247049E-05  5.55247049E-05  5.55247049E-05  5.55247049E-05  5.55247049E-05  5.55247049E-05  3.76526600E-07  5.96001144E-07  8.02779653E-07  1.08948575E-06  1.87434234E-05  2.19741705E-05  1.05810768E-05  9.63180628E-06  4.82511723E-06  6.73582099E-06  7.79032871E-06  7.46179103E-06  5.86463284E-06  6.83962480E-06  1.77442280E-06  1.87120065E-06  1.92917764E-06  2.10840767E-06  2.59806643E-06  2.62443587E-06  2.59939497E-06  2.10699113E-06  2.08590905E-06  1.27815599E-06  1.16085425E-06  1.08265726E-06  1.16072420E-06  1.60411662E-06  2.22109975E-06  1.87478599E-06  1.54858753E-06  1.26667840E-06  1.12526504E-06  1.25316330E-06  1.43162708E-06  1.49375114E-06  7.81223935E-05  1.02838450E-04  9.18511723E-05  7.96944732E-05  6.61701197E-05  6.95316994E-05  7.02704638E-05  5.94452831E-05  4.12146474E-05  1.53082999E-06  6.20953069E-05  6.83754042E-05  1.04182378E-04  4.44825382E-05  2.11242059E-06  1.72197576E-06  1.57997783E-06  9.16634860E-07  9.54049938E-06  1.06862371E-05  1.79464706E-07  1.26541721E-07  1.54024903E-07  1.08727136E-07  1.95058718E-07  1.87601529E-07  1.60714464E-07  8.84204923E-08  7.63506068E-06  9.20728235E-06  2.15945274E-05  3.97313815E-05  7.81205745E-05  1.04496787E-04  1.24748825E-04  1.41123659E-04  1.37922296E-04  1.12284106E-04  1.05418803E-04  9.98096075E-05  6.44810934E-05  4.69304541E-05  3.19003229E-05  2.52577156E-05  1.59734300E-05  1.24510125E-05  7.57600401E-06  1.75976027E-06  3.17260316E-07  3.35658001E-07  3.43456634E-07  2.87495908E-07  2.07536402E-07  1.58319210E-07  1.58563395E-07  1.85978266E-07  2.56832692E-07  5.55247049E-05  5.55247049E-05  5.55247049E-05  5.55247049E-05  5.55247049E-05  5.55247049E-05  5.55247049E-05  3.38991299E-06  4.50928655E-06  4.79493019E-06  4.62534990E-06  4.37357494E-06  4.27817076E-06  4.74577291E-06  4.87031912E-06  4.33359992E-06  3.58019315E-06  2.74341551E-06  2.33416449E-06  2.30472983E-06  2.18653258E-06  1.91126765E-06  1.63309426E-06  1.30332057E-06  1.11431143E-06  9.91525781E-07  8.81594985E-07  4.01523648E-05  6.17132318E-05  8.83631001E-05  1.28830943E-04
      1.40062784E-05  1.97376085E-05  2.49035529E-05  4.10874804E-07  3.25343819E-07  2.77784210E-07  2.59531902E-07  2.26576603E-07  5.55247049E-05  5.55247049E-05  5.55247049E-05  5.55247049E-05  5.55247049E-05  5.55247049E-05  5.55247049E-05  5.55247049E-05  4.13909333E-07  6.11369728E-07  8.78536298E-07  1.23513371E-06  2.36680444E-05  1.65583733E-05  1.51972281E-05  6.45067985E-06  1.23518601E-06  5.28299779E-06  5.96885184E-06  1.41322084E-06  1.50035908E-06  1.67119458E-06  1.79780056E-06  2.04996377E-06  2.14141096E-06  2.46685750E-06  2.80335667E-06  3.57180943E-06  3.69013401E-06  3.36208586E-06  1.90579067E-06  2.31819536E-06  2.20860397E-06  1.76648052E-06  1.42763588E-06  2.01996022E-06  2.36246365E-06  2.24889845E-06  1.77974232E-06  1.33795504E-06  1.27935505E-06  1.43689920E-06  2.36855903E-05  6.22752777E-05  7.64587603E-05  8.31455982E-05  8.46838229E-05  7.99319969E-05  7.14347916E-05  8.46236871E-05  8.59218781E-05  9.15674464E-05  9.10306117E-05  8.21667345E-05  5.50092518E-05  9.64312931E-05  8.37105472E-05  3.05484973E-05  2.43521208E-05  3.86486900E-05  1.65561160E-05  1.35829787E-05  1.16349183E-05  1.47297724E-05  1.87421811E-05  1.15381894E-07  1.17438368E-07  1.35148056E-07  2.39329665E-07  1.55241338E-07  1.01103986E-07  1.23694093E-07  1.11957903E-07  1.94818367E-05  2.43741979E-05  4.22265039E-05  6.80119629E-05  8.99070074E-05  1.18928700E-04  1.29572145E-04  1.21505800E-04  1.15462288E-04  1.09543311E-04  9.53750641E-05  8.09716294E-05  5.32137092E-05  5.11942744E-05  3.23928289E-05  2.62849808E-05  1.26944551E-05  6.51420441E-06  3.51592575E-06  1.63818197E-06  2.67800715E-07  2.71310853E-07  2.23298159E-07  2.03065611E-07  1.95128948E-07  2.03769460E-07  2.40886948E-07  3.45973973E-07  5.55247049E-05  5.55247049E-05  5.55247049E-05  5.55247049E-05  5.55247049E-05  5.55247049E-05  5.55247049E-05  3.53769860E-06  5.02800594E-06  5.46882984E-06  5.44779823E-06  5.80912319E-06  5.75811146E-06  6.12564463E-06  5.71063720E-06  4.93316611E-06  3.36585322E-06  2.63130892E-06  2.14124157E-06  2.04852518E-06  1.78044866E-06  1.58221928E-06  1.27553983E-06  9.02168097E-07  7.85830707E-07  6.90025729E-07  4.00500394E-05  4.76318492E-05  7.20759344E-05  9.95871378E-05  1.39019467E-04
      1.16017181E-05  1.39287049E-05  2.22131694E-05  5.94609219E-07  4.94479252E-07  4.12525424E-07  3.57984419E-07  3.10501889E-07  2.47149700E-07  1.78026028E-07  5.55247049E-05  5.55247049E-05  5.55247049E-05  5.55247049E-05  5.55247049E-05  3.00888416E-07  4.80469055E-07  6.90788568E-07  9.83772907E-07  1.40447048E-06  1.63781874E-06  1.86656189E-06  1.16819447E-05  1.85687395E-06  1.65202323E-06  1.59308877E-06  1.45886725E-06  1.52176392E-06  1.62673950E-06  1.75243599E-06  2.02065166E-06  2.18462515E-06  2.50237463E-06  3.14889007E-06  4.20970991E-06  4.95822769E-06  5.64287075E-06  5.19872401E-06  3.12108114E-06  4.81118786E-06  4.40428448E-06  2.91121182E-06  2.48908668E-06  2.84173279E-06  2.64034793E-06  2.29958391E-06  1.95338544E-06  1.59432375E-06  1.70575458E-06  1.82620886E-06  3.19882092E-05  7.49088431E-05  7.98199399E-05  7.76569723E-05  7.52657434E-05  7.19767049E-05  8.48676063E-05  9.27055953E-05  9.36655924E-05  1.01990321E-04  8.92408789E-05  7.26531507E-05  6.64920517E-05  7.27393926E-05  8.04775482E-05  7.51044790E-05  4.57784881E-05  3.82564831E-05  3.77368233E-05  3.24521752E-05  1.99146125E-05  2.23796378E-05  2.92129971E-05  2.15158508E-07  1.54037409E-07  1.10960784E-07  1.19532046E-07  9.55328119E-08  1.15823376E-07  1.94826967E-07  1.38524584E-07  2.01126695E-05  2.73353162E-05  4.21279219E-05  7.00628298E-05  8.81406668E-05  1.12520705E-04  1.13401999E-04  1.06903419E-04  1.03533785E-04  9.44649728E-05  9.30879032E-05  8.49707940E-05  8.02217692E-05  6.76293566E-05  5.54305298E-05  3.02670087E-05  1.87884380E-05  9.44253679E-06  5.54477128E-06  1.66983239E-06  2.33987706E-07  2.29629265E-07  2.10646476E-07  1.97833771E-07  2.12567130E-07  2.48606966E-07  3.14055654E-07  4.48353006E-07  5.38218899E-07  5.55247049E-05  5.55247049E-05  5.55247049E-05  5.55247049E-05  5.55247049E-05  2.38414259E-06  3.16658088E-06  5.00336000E-06  6.59736224E-06  7.00544888E-06  7.43319333E-06  6.82757991E-06  6.45234468E-06  5.86044371E-06  4.49856771E-06  3.44343630E-06  2.46325317E-06  2.01973103E-06  1.71221041E-06  1.45635829E-06  1.28158376E-06  1.01905164E-06  7.20657454E-07  5.67497864E-07  5.09902463E-07  5.62934365E-05  6.33800082E-05  9.41866019E-05  1.21357843E-04  1.72411150E-04
      8.60112868E-06  1.24352537E-05  6.99447696E-07  8.54720270E-07  7.79147740E-07  6.26571989E-07  4.48655101E-07  3.54703246E-07  2.68669339E-07  2.13335412E-07  1.53723889E-07  5.55247049E-05  5.55247049E-05  1.95242364E-07  2.64144234E-07  3.94546277E-07  7.52684064E-05  5.23345043E-05  4.19507742E-05  2.51309502E-05  1.85048175E-05  2.05091123E-06  2.18450759E-06  5.55247049E-05  5.55247049E-05  5.55247049E-05  5.55247049E-05  5.55247049E-05  5.55247049E-05  1.81516612E-06  1.82835947E-06  2.18698506E-06  2.74628042E-06  3.75876812E-06  4.76678724E-06  4.79152277E-06  4.67097288E-06  5.41908412E-06  5.76313414E-06  5.91035541E-06  5.75739159E-06  5.26403210E-06  4.31249236E-06  3.77334618E-06  3.03932438E-06  2.56644535E-06  2.20778315E-06  2.11246470E-06  2.22510243E-06  2.41196562E-06  2.84014841E-05  8.72265446E-05  9.66156149E-05  9.06203277E-05  8.74818434E-05  9.31819523E-05  9.57950178E-05  9.26804132E-05  8.98875514E-05  9.80788755E-05  1.11940302E-04  1.12525209E-04  9.08465736E-05  1.04632876E-04  1.03174963E-04  1.09598412E-04  1.08967732E-04  8.83134198E-05  4.97837136E-05  4.83935000E-05  5.22902701E-05  4.01446523E-05  4.85321209E-07  3.21503705E-07  2.09707608E-07  1.30621174E-07  1.04850550E-07  6.81365364E-08  1.16227305E-07  1.40549173E-05  9.69329267E-06  2.05818487E-05  2.59939425E-05  4.35731527E-05  8.23777882E-05  9.68691747E-05  1.13854934E-04  1.13856942E-04  9.29925736E-05  8.69172582E-05  8.36633917E-05  7.51117695E-05  6.85355553E-05  6.75995470E-05  6.45530599E-05  5.33334096E-05  4.55541849E-05  2.13162584E-05  1.13228607E-05  6.76225091E-06  3.66479321E-06  1.87678017E-06  2.31913191E-07  2.11512699E-07  2.15207393E-07  2.36973577E-07  3.33080038E-07  3.78800138E-07  5.40626615E-07  6.87254783E-07  9.54822781E-07  5.55247049E-05  5.55247049E-05  1.70220881E-06  1.98351631E-06  2.31232025E-06  2.64501023E-06  4.09109771E-06  6.11623727E-06  8.01786973E-06  9.27745350E-06  7.86028977E-06  6.67752511E-06  5.03357614E-06  3.59499768E-06  2.71475074E-06  2.30615319E-06  1.71571719E-06  1.24696180E-06  1.02886111E-06  8.82094582E-07  6.70952261E-07  4.87018838E-07  4.16625653E-07  4.11836083E-07  9.66647058E-05  1.18331489E-04  1.64942001E-04  1.99357703E-04  2.77302723E-04
      8.72741202E-06  1.02533986E-05  1.60041745E-05  7.07976255E-07  3.03272445E-05  4.14256720E-05  6.06481190E-05  6.26549154E-05  8.41031142E-05  7.96004460E-05  2.03848344E-07  1.71970555E-07  1.74706315E-07  2.47495649E-07  6.15166718E-05  1.17523014E-04  5.25605574E-05  3.63527506E-05  2.91284268E-05  2.06065988E-06  2.65174936E-06  5.55247049E-05  5.55247049E-05  5.55247049E-05  5.55247049E-05  5.55247049E-05  5.55247049E-05  5.55247049E-05  5.55247049E-05  5.55247049E-05  5.55247049E-05  2.29214652E-06  2.87949138E-06  3.35962568E-06  5.55247049E-05  5.55247049E-05  5.55247049E-05  5.17621311E-06  5.55247049E-05  5.55247049E-05  5.55247049E-05  5.55247049E-05  5.55247049E-05  4.80225390E-06  3.95813686E-06  3.43285160E-06  2.91202559E-06  2.84141242E-06  3.23573931E-06  3.12601651E-06  3.57091994E-05  7.61705232E-05  1.16798918E-04  1.12739741E-04  1.06625856E-04  1.13022616E-04  1.12109003E-04  1.11797810E-04  1.05029430E-04  1.07390530E-04  1.14410417E-04  1.04379593E-04  1.15387644E-04  1.12001435E-04  1.35784634E-04  1.86067555E-04  1.36993724E-04  1.21990561E-04  7.58340830E-05  7.69122926E-05  9.15909695E-05  1.06427194E-06  6.59284467E-07  4.35651060E-07  3.03109772E-07  1.77672291E-07  1.17448423E-07  9.94134766E-08  8.81731452E-08  7.55125527E-08  1.08528484E-05  1.03529392E-05  2.43156373E-05  5.73827238E-05  6.48123678E-05  1.04624422E-04  1.07635300E-04  9.57416341E-05  8.97619029E-05  7.91656348E-05  7.16589711E-05  6.16199177E-05  6.36360201E-05  6.55570984E-05  6.61502854E-05  5.35187064E-05  4.10233042E-05  3.20062500E-05  1.80588613E-05  1.03884759E-05  2.82596875E-06  2.37562020E-07  2.46375066E-07  2.39603054E-07  2.31113262E-07  2.85860722E-07  3.80733098E-07  4.83515521E-07  6.59312093E-07  7.90763750E-07  1.04097126E-06  1.53590759E-06  2.05834749E-06  2.38712846E-06  2.46412992E-06  2.59014541E-06  3.28810233E-06  4.28085468E-06  5.85218868E-06  8.43784983E-06  1.00146681E-05  8.71481461E-06  6.33144782E-06  4.42839701E-06  2.86128261E-06  2.30299383E-06  1.78468918E-06  1.28951933E-06  8.24874803E-07  6.21732966E-07  5.55247049E-05  5.55247049E-05  5.55247049E-05  3.01148191E-07  2.94953963E-07  1.67757069E-04  1.96661742E-04  2.80775625E-04  3.18108592E-04  3.80213867E-04
      5.34947731E-07  4.82623534E-07  5.15590784E-07  1.48894978E-05  2.25786989E-05  7.08327207E-05  8.39916756E-05  8.53216261E-05  4.97381225E-05  8.67944182E-05  1.53091620E-04  1.40808086E-04  1.22585756E-04  1.06380205E-04  9.58143282E-05  9.20627208E-05  7.73125867E-05  5.06874312E-05  4.04423408E-05  3.03554298E-05  5.55247049E-05  5.55247049E-05  5.55247049E-05  5.55247049E-05  5.55247049E-05  5.55247049E-05  5.55247049E-05  5.55247049E-05  5.55247049E-05  5.55247049E-05  5.55247049E-05  5.55247049E-05  5.55247049E-05  5.55247049E-05  5.55247049E-05  5.55247049E-05  5.55247049E-05  5.55247049E-05  5.55247049E-05  5.55247049E-05  5.55247049E-05  5.55247049E-05  5.55247049E-05  5.55247049E-05  5.55247049E-05  3.92981201E-06  3.94879953E-06  4.45935893E-06  4.56373391E-06  4.35981838E-06  3.77691254E-06  9.76916053E-05  1.42246543E-04  1.32276080E-04  1.35677110E-04  1.45993326E-04  1.46640043E-04  1.45097118E-04  1.36649585E-04  1.36919887E-04  1.25334293E-04  1.03860715E-04  1.22102443E-04  1.58714276E-04  2.08176833E-04  2.27631361E-04  2.38985071E-04  1.76916685E-04  1.92465741E-04  1.44125457E-04  1.12752045E-04  1.57819488E-06  1.11001157E-06  7.03666501E-07  5.01640216E-07  3.12956843E-07  2.25300653E-07  1.85944188E-07  1.47136845E-07  1.84786932E-05  2.47155149E-05  1.24131839E-05  2.48821361E-05  4.03445192E-05  6.18624981E-05  7.59600516E-05  8.04566662E-05  7.92052306E-05  7.38729068E-05  7.06654318E-05  6.61588128E-05  5.78047475E-05  5.99622072E-05  5.73381949E-05  6.15965255E-05  5.28682067E-05  4.17507581E-05  3.55895972E-05  2.61349833E-05  1.64002595E-05  7.39116877E-06  3.50106939E-06  2.65262400E-07  2.59798753E-07  2.83973293E-07  3.35250547E-07  4.80117706E-07  6.07381367E-07  7.69447809E-07  1.01228386E-06  1.28349984E-06  1.56386761E-06  1.88014508E-06  2.32673028E-06  2.48229844E-06  3.03704110E-06  3.72727300E-06  4.45292471E-06  5.40544079E-06  7.20202843E-06  8.72424516E-06  7.49533137E-06  6.07611128E-06  3.81766040E-06  2.59277863E-06  1.83172506E-06  5.55247049E-05  5.55247049E-05  5.55247049E-05  5.55247049E-05  5.55247049E-05  5.55247049E-05  5.55247049E-05  5.55247049E-05  5.55247049E-05  2.23249459E-04  2.84732145E-04  3.79251200E-04  4.60029289E-04  5.12314553E-04
      8.72036799E-06  8.63837067E-06  3.22668257E-07  1.16213068E-05  1.59770043E-05  4.28893545E-05  9.44517597E-05  9.13999975E-05  1.06527456E-04  1.09549597E-04  1.10571345E-04  1.09199420E-04  1.30685876E-04  6.77646021E-05  5.46584452E-05  3.26112058E-05  2.65517720E-05  2.90575845E-05  3.47665409E-05  3.23005297E-05  5.55247049E-05  5.55247049E-05  5.55247049E-05  5.55247049E-05  5.55247049E-05  5.55247049E-05  5.55247049E-05  5.55247049E-05  5.55247049E-05  5.55247049E-05  5.55247049E-05  5.55247049E-05  5.55247049E-05  5.55247049E-05  5.55247049E-05  5.55247049E-05  5.55247049E-05  5.55247049E-05  5.55247049E-05  5.55247049E-05  5.55247049E-05  5.55247049E-05  5.55247049E-05  5.55247049E-05  5.55247049E-05  5.23411745E-06  5.41783402E-06  6.12493886E-06  6.71802582E-06  6.13559314E-06  5.31357045E-06  5.77303108E-05  1.07576176E-04  1.51636428E-04  1.58141833E-04  1.79841896E-04  1.74252214E-04  1.60897413E-04  1.45145677E-04  1.37212483E-04  1.24465354E-04  1.11281544E-04  1.38432020E-04  1.82943579E-04  2.39612025E-04  2.73006299E-04  3.38525046E-04  2.80609936E-04  3.26534675E-04  1.38181626E-04  1.97506743E-04  1.95707980E-06  1.58597049E-06  1.20802690E-06  8.82038307E-07  6.03943477E-07  4.25696101E-07  3.54154423E-07  2.30084368E-07  2.09548343E-05  2.40075281E-07  3.46288886E-07  1.68198912E-05  3.08258714E-05  5.47308991E-05  6.84832266E-05  6.31058501E-05  6.94992123E-05  6.78671786E-05  7.07045619E-05  6.30883223E-05  5.50671211E-05  5.81159329E-05  5.45076837E-05  5.98591505E-05  5.38630520E-05  4.39823853E-05  3.97489493E-05  3.30303374E-05  2.24626201E-05  1.62929227E-05  5.56477198E-06  2.74377896E-07  2.72884137E-07  3.01623601E-07  3.89786891E-07  5.85806220E-07  8.15579028E-07  9.73876581E-07  1.28006809E-06  1.55397800E-06  1.50712106E-06  1.86229920E-06  2.06798086E-06  2.17057573E-06  2.95947439E-06  3.42006888E-06  1.70836029E-05  2.62279646E-05  5.56012037E-06  6.12028771E-06  5.91111530E-06  4.71312069E-06  3.02055196E-06  5.55247049E-05  5.55247049E-05  5.55247049E-05  5.55247049E-05  5.55247049E-05  5.55247049E-05  5.55247049E-05  5.55247049E-05  5.55247049E-05  5.55247049E-05  5.55247049E-05  2.68927542E-04  3.50081827E-04  4.45128564E-04  5.89154835E-04  6.09841663E-04
      8.95924404E-06  8.00445378E-06  9.55714222E-06  2.09851114E-05  2.87360344E-05  3.70505804E-05  7.06896608E-05  1.18473457E-04  1.16455398E-04  1.27324063E-04  8.67291383E-05  9.01700332E-05  6.35447941E-05  5.35966901E-05  4.04997809E-05  2.89978561E-05  2.37985114E-05  2.65898198E-05  3.44327964E-05  3.27894195E-05  5.55247049E-05  5.55247049E-05  5.55247049E-05  5.55247049E-05  5.55247049E-05  5.55247049E-05  5.55247049E-05  5.55247049E-05  5.55247049E-05  5.55247049E-05  5.55247049E-05  5.55247049E-05  5.55247049E-05  5.55247049E-05  5.55247049E-05  5.55247049E-05  5.55247049E-05  5.55247049E-05  5.55247049E-05  5.55247049E-05  5.55247049E-05  5.55247049E-05  5.55247049E-05  5.55247049E-05  5.55247049E-05  5.55247049E-05  6.20095443E-06  7.97111079E-06  7.60727107E-06  7.11202483E-06  6.37847916E-06  4.41063958E-06  1.45059050E-04  1.45109341E-04  1.86402976E-04  1.74529239E-04  1.81227049E-04  1.61402597E-04  1.45543148E-04  9.84156286E-05  8.83147077E-05  1.00150421E-04  1.42750956E-04  1.91326442E-04  2.68047937E-04  4.04846942E-04  4.05910017E-04  3.04782297E-04  3.89633264E-04  2.31176004E-04  2.75944767E-04  2.21384744E-06  1.90951118E-06  1.80241148E-06  1.49271068E-06  9.88841748E-07  7.19645868E-07  4.97116218E-07  3.21422561E-07  2.72370585E-07  3.01162260E-07  3.61918325E-07  1.70621006E-05  2.09467435E-05  5.03091796E-05  5.47061354E-05  5.21792535E-05  6.14704841E-05  6.10979259E-05  5.54467661E-05  4.71563362E-05  4.78659822E-05  5.38626118E-05  5.92910110E-05  5.72097597E-05  5.34301507E-05  4.82283176E-05  4.12118170E-05  4.06335057E-05  3.04394925E-05  2.27903656E-05  8.35396986E-06  3.07258460E-07  3.28143699E-07  3.89433325E-07  5.04137120E-07  7.59662555E-07  1.04321953E-06  1.09235748E-06  1.40770976E-06  1.65064921E-06  1.75411492E-06  1.85380463E-06  2.06706636E-06  2.25716758E-06  2.93327093E-06  1.71745069E-05  1.79495801E-05  1.67566941E-05  3.83067663E-06  3.92051652E-06  3.76023354E-06  3.34126889E-06  2.32308457E-06  5.55247049E-05  5.55247049E-05  5.55247049E-05  5.55247049E-05  5.55247049E-05  5.55247049E-05  5.55247049E-05  5.55247049E-05  5.55247049E-05  5.55247049E-05  5.55247049E-05  2.62946560E-04  3.34709417E-04  4.27401043E-04  5.44768351E-04  6.33772463E-04
      7.75583976E-06  1.30782237E-05  1.63647437E-05  1.82144322E-05  3.89359957E-05  5.27037482E-05  7.96717723E-05  1.12539034E-04  1.12315225E-04  1.15932489E-04  1.13833892E-04  1.03974904E-04  5.43986316E-05  4.79024420E-05  3.41874365E-05  2.38588909E-05  2.35872976E-05  2.83578502E-05  3.99131095E-05  4.20271026E-05  5.55247049E-05  5.55247049E-05  5.55247049E-05  5.55247049E-05  5.55247049E-05  5.55247049E-05  5.55247049E-05  5.55247049E-05  5.55247049E-05  5.55247049E-05  5.55247049E-05  5.55247049E-05  5.55247049E-05  5.55247049E-05  5.55247049E-05  5.55247049E-05  5.55247049E-05  5.55247049E-05  5.55247049E-05  5.55247049E-05  5.55247049E-05  5.55247049E-05  5.55247049E-05  5.55247049E-05  5.55247049E-05  5.55247049E-05  5.55247049E-05  8.70851818E-06  9.46930049E-06  7.83428732E-06  7.29668591E-06  6.15434055E-06  8.15798485E-05  1.78612550E-04  1.38558258E-04  1.42315243E-04  1.30088039E-04  1.30222455E-04  1.14284070E-04  8.89442817E-05  6.68921275E-05  7.60372932E-05  9.83262289E-05  1.83691969E-04  2.53139238E-04  3.29336472E-04  3.53761570E-04  4.21736215E-04  2.19412148E-04  3.15688812E-04  3.19551007E-04  2.33854439E-06  2.18626315E-06  1.95803796E-06  1.67315761E-06  1.33909805E-06  8.62900663E-07  5.63056801E-07  4.35400352E-07  2.79182586E-07  2.79807580E-07  2.91472247E-07  1.83746815E-05  2.56586445E-05  4.62717217E-05  5.19597088E-05  4.71668209E-05  5.24615098E-05  4.93712614E-05  4.94323722E-05  3.81975515E-05  3.64968400E-05  4.30703913E-05  5.77768260E-05  6.06015892E-05  6.94841801E-05  5.73724428E-05  4.55176050E-05  4.07500520E-05  2.95623377E-05  2.41095095E-05  1.24571989E-05  3.25325374E-07  3.81670617E-07  5.28488385E-07  6.05671971E-07  9.04566377E-07  1.27100748E-06  1.34259938E-06  1.61057733E-06  2.09481414E-06  2.15504019E-06  2.07003632E-06  1.99586611E-06  2.09791210E-06  2.08762231E-05  3.26213994E-05  1.78610462E-05  3.06754155E-05  1.63513978E-05  2.63130005E-06  2.52320660E-06  2.44231342E-06  1.67730570E-06  5.55247049E-05  5.55247049E-05  5.55247049E-05  5.55247049E-05  5.55247049E-05  5.55247049E-05  5.55247049E-05  5.55247049E-05  5.55247049E-05  5.55247049E-05  5.55247049E-05  3.12037912E-07  2.94388563E-04  3.72302340E-04  4.52058477E-04  5.50482073E-04
      9.65025811E-06  1.43873176E-05  1.95459688E-05  1.50141641E-05  3.03764828E-05  4.44718062E-05  7.20041426E-05  1.10308058E-04  1.22857498E-04  1.35407434E-04  1.69997453E-04  1.32352128E-04  6.23386586E-05  5.12041006E-05  3.90334280E-05  3.35975710E-05  2.62028771E-05  3.51383314E-05  4.98639056E-05  4.95864515E-05  5.55247049E-05  5.55247049E-05  5.55247049E-05  5.55247049E-05  5.55247049E-05  5.55247049E-05  5.55247049E-05  5.55247049E-05  5.55247049E-05  5.55247049E-05  5.55247049E-05  5.55247049E-05  5.55247049E-05  5.55247049E-05  5.55247049E-05  5.55247049E-05  5.55247049E-05  5.55247049E-05  5.55247049E-05  5.55247049E-05  5.55247049E-05  5.55247049E-05  5.55247049E-05  5.55247049E-05  5.55247049E-05  5.55247049E-05  5.55247049E-05  5.55247049E-05  5.55247049E-05  1.03862212E-05  8.08012737E-06  6.76801483E-06  4.33360310E-06  2.74228955E-06  7.47066006E-05  5.68828727E-05  7.59005998E-05  8.41057335E-05  8.36091349E-05  5.73997713E-05  4.62033167E-05  3.25758265E-05  5.85504567E-05  8.62347733E-05  1.79763112E-04  2.19449983E-04  3.30952724E-04  2.81203480E-04  2.28462246E-04  2.84590351E-04  2.82545466E-06  2.36204528E-06  2.36469555E-06  2.32814523E-06  1.79499818E-06  1.42832698E-06  9.11607231E-07  5.75758577E-07  4.14540295E-07  2.43324138E-07  2.12457849E-07  2.12127560E-07  1.42537911E-05  2.07478097E-05  2.73675232E-05  4.63881552E-05  4.68233084E-05  5.03761148E-05  4.78778311E-05  4.21810109E-05  3.55700795E-05  3.43767933E-05  4.80657945E-05  6.64847685E-05  7.44045610E-05  7.96610184E-05  6.70777954E-05  4.99121597E-05  4.04746024E-05  2.88320825E-05  2.48152155E-05  1.39265630E-05  3.61634477E-07  4.47768059E-07  5.53758412E-07  6.70285090E-07  9.60656735E-07  1.20136974E-06  1.48486333E-06  1.81446285E-06  2.24891528E-06  2.46820309E-06  2.37873792E-06  2.17650245E-06  2.18322875E-05  1.96464753E-05  1.86612797E-05  3.31209594E-05  3.33857388E-05  1.57523064E-05  1.91727327E-06  1.76028971E-06  1.75371270E-06  1.40890722E-06  5.55247049E-05  5.55247049E-05  5.55247049E-05  5.55247049E-05  5.55247049E-05  5.55247049E-05  5.55247049E-05  5.55247049E-05  5.55247049E-05  5.55247049E-05  5.55247049E-05  3.86921300E-07  2.29992205E-04  3.05732799E-04  4.01874655E-04  4.27329389E-04
      1.13557871E-05  1.12469252E-05  1.36673443E-05  1.42820045E-05  2.24957003E-05  4.20013494E-05  5.55385850E-05  9.44105122E-05  1.51060740E-04  1.83582510E-04  1.89218204E-04  1.47180515E-04  9.65882646E-05  6.35801407E-05  5.18154593E-05  5.01995564E-05  4.45867190E-05  5.00894384E-05  7.18507217E-05  5.55247049E-05  5.55247049E-05  5.55247049E-05  5.55247049E-05  5.55247049E-05  5.55247049E-05  5.55247049E-05  5.55247049E-05  5.55247049E-05  5.55247049E-05  5.55247049E-05  5.55247049E-05  5.55247049E-05  5.55247049E-05  5.55247049E-05  5.55247049E-05  5.55247049E-05  5.55247049E-05  5.55247049E-05  5.55247049E-05  5.55247049E-05  5.55247049E-05  5.55247049E-05  5.55247049E-05  5.55247049E-05  5.55247049E-05  5.55247049E-05  5.55247049E-05  5.55247049E-05  5.55247049E-05  5.55247049E-05  8.98075541E-06  6.26218298E-06  3.82901271E-06  2.41595058E-06  1.60153093E-06  1.25121949E-06  3.08457093E-05  4.22159173E-05  4.12864829E-05  4.77949907E-05  2.88045339E-05  2.85406841E-05  3.78385266E-05  6.83626495E-05  9.34548079E-05  1.23153310E-04  1.96995272E-04  1.21187149E-04  3.38316499E-06  3.18861089E-06  2.73464593E-06  2.25138706E-06  2.21218147E-06  2.39118981E-06  1.87009891E-06  1.51011170E-06  9.43136001E-07  6.44271097E-07  4.32247958E-07  2.51519765E-07  1.93345727E-07  2.06313562E-05  2.64621685E-05  2.65976814E-05  3.26474546E-05  5.08660414E-05  4.90958628E-05  4.44911129E-05  4.92902291E-05  4.21886216E-05  3.79772900E-05  3.89407287E-05  5.69801123E-05  6.86623098E-05  7.65199147E-05  4.46150880E-05  5.71790079E-05  4.27521045E-05  3.70965208E-05  2.38443572E-05  1.28057954E-05  4.21533628E-07  3.84389750E-07  4.53116485E-07  4.91106732E-07  6.61385513E-07  9.23310211E-07  1.16427952E-06  1.40431575E-06  1.78826247E-06  2.18624837E-06  2.37359427E-06  2.49100458E-06  2.33666947E-06  1.95822759E-05  2.92473378E-05  2.99941221E-05  2.99355124E-05  2.77982708E-05  2.58230830E-05  1.55908110E-05  1.24418818E-06  1.30421540E-06  1.03290472E-06  8.88512830E-07  5.55247049E-05  5.55247049E-05  5.55247049E-05  5.55247049E-05  5.55247049E-05  5.55247049E-05  5.55247049E-05  5.55247049E-05  5.55247049E-05  5.55247049E-05  3.67491310E-07  2.25575044E-04  2.64866656E-04  3.26291018E-04  3.58263351E-04
      8.72483179E-06  1.08274689E-05  1.07649730E-05  1.27763024E-05  2.36749784E-05  2.84757061E-05  4.30525688E-05  7.69828112E-05  1.24333877E-04  1.27911000E-04  1.80196090E-04  1.60643365E-04  1.15575807E-04  8.62110755E-05  7.46730148E-05  7.31438413E-05  1.10116496E-04  1.25741484E-04  1.04403392E-04  5.55247049E-05  5.55247049E-05  5.55247049E-05  5.55247049E-05  5.55247049E-05  5.55247049E-05  5.55247049E-05  5.55247049E-05  5.55247049E-05  5.55247049E-05  5.55247049E-05  5.55247049E-05  5.55247049E-05  5.55247049E-05  5.55247049E-05  5.55247049E-05  5.55247049E-05  5.55247049E-05  5.55247049E-05  5.55247049E-05  5.55247049E-05  5.55247049E-05  5.55247049E-05  5.55247049E-05  5.55247049E-05  5.55247049E-05  5.55247049E-05  5.55247049E-05  5.55247049E-05  5.55247049E-05  5.55247049E-05  5.55247049E-05  4.46486592E-06  3.23466838E-06  2.16803210E-06  1.59906767E-06  1.17944717E-06  9.93265417E-07  9.84530516E-07  1.98984199E-05  2.74773611E-05  2.39699530E-05  1.27593084E-05  2.94899855E-05  3.73700932E-05  4.53326902E-05  6.67015847E-05  9.41983526E-05  8.22573056E-05  8.95301710E-05  3.60467811E-06  3.32309605E-06  2.74853483E-06  2.59109311E-06  2.92078630E-06  1.91175513E-06  1.40559189E-06  8.99221504E-07  6.32336025E-07  4.57014181E-07  3.01686526E-07  2.38395018E-07  1.94610266E-07  1.55658054E-05  1.97672307E-05  3.27797425E-05  4.18583586E-05  3.92750808E-05  4.66513957E-05  5.00117894E-05  4.58171344E-05  4.05175706E-05  4.29473039E-05  5.48071439E-05  5.73749639E-05  6.29456190E-05  2.84323633E-05  1.02035608E-06  2.56663789E-05  3.20862273E-05  1.76482517E-05  5.10859536E-07  4.69184954E-07  4.64981383E-07  4.75069641E-07  5.07693642E-07  5.66535277E-07  8.07513970E-07  1.21861592E-06  1.53735948E-06  1.94157133E-06  2.11104611E-06  2.30174237E-06  2.20548873E-06  2.10938924E-06  1.87644946E-06  1.71954866E-06  2.51221463E-05  2.68233562E-05  3.76156568E-05  2.41639846E-05  2.84933340E-05  2.95775681E-05  1.02173499E-06  1.00906220E-06  9.78298431E-07  8.40431596E-07  5.55247049E-05  5.55247049E-05  5.55247049E-05  5.55247049E-05  5.55247049E-05  5.55247049E-05  5.55247049E-05  5.55247049E-05  5.55247049E-05  3.63839831E-07  2.45179021E-04  2.68385018E-04  2.52903934E-04  2.60853587E-04