# File generated by Flopy version 3.9.2 on 06/10/2025 at 16:30:29.
BEGIN options
  HEAD  FILEOUT  test.hds
END options

BEGIN period  1
  SAVE  HEAD  LAST
  PRINT  BUDGET  ALL
END period  1

