# File generated by Flopy version 3.9.3 on 10/06/2025 at 14:05:47.
BEGIN options
  COMPLEXITY  moderate
END options

BEGIN linear
  INNER_DVCLOSE  1.00000000E-05
END linear

