# File generated by Flopy version 3.9.2 on 06/23/2025 at 16:04:56.
BEGIN options
  SAVE_FLOWS
END options

BEGIN dimensions
  MAXBOUND  1
END dimensions

BEGIN period  1
  3 26 41 -1.50000000E-03
END period  1

