# File generated by Flopy version 3.9.2 on 07/03/2025 at 16:33:36.
BEGIN options
END options

BEGIN griddata
  strt
    CONSTANT       1.00000000
END griddata

