# File generated by Flopy version 3.9.1 on 06/09/2025 at 12:58:15.
BEGIN options
  auxiliary  TEMPERATURE
  SAVE_FLOWS
END options

BEGIN dimensions
  MAXBOUND  290
END dimensions

BEGIN period  1
  1 1 1 3.00000000E-01 10
  1 2 1 3.00000000E-01 10
  1 3 1 3.00000000E-01 10
  1 4 1 3.00000000E-01 10
  1 5 1 3.00000000E-01 10
  1 6 1 3.00000000E-01 10
  1 7 1 3.00000000E-01 10
  1 8 1 3.00000000E-01 10
  1 9 1 3.00000000E-01 10
  1 10 1 3.00000000E-01 10
  1 11 1 3.00000000E-01 10
  1 12 1 3.00000000E-01 10
  1 13 1 3.00000000E-01 10
  1 14 1 3.00000000E-01 10
  1 15 1 3.00000000E-01 10
  1 16 1 3.00000000E-01 10
  1 17 1 3.00000000E-01 10
  1 18 1 3.00000000E-01 10
  1 19 1 3.00000000E-01 10
  1 20 1 3.00000000E-01 10
  1 21 1 3.00000000E-01 10
  1 22 1 3.00000000E-01 10
  1 23 1 3.00000000E-01 10
  1 24 1 3.00000000E-01 10
  1 25 1 3.00000000E-01 10
  1 26 1 3.00000000E-01 10
  1 27 1 3.00000000E-01 10
  1 28 1 3.00000000E-01 10
  1 29 1 3.00000000E-01 10
  1 30 1 3.00000000E-01 10
  1 31 1 3.00000000E-01 10
  1 32 1 3.00000000E-01 10
  1 33 1 3.00000000E-01 10
  1 34 1 3.00000000E-01 10
  1 35 1 3.00000000E-01 10
  1 36 1 3.00000000E-01 10
  1 37 1 3.00000000E-01 10
  1 38 1 3.00000000E-01 10
  1 39 1 3.00000000E-01 10
  1 40 1 3.00000000E-01 10
  1 44 1 3.00000000E-01 10
  1 45 1 3.00000000E-01 10
  1 46 1 3.00000000E-01 10
  1 47 1 3.00000000E-01 10
  1 48 1 3.00000000E-01 10
  1 49 1 3.00000000E-01 10
  1 50 1 3.00000000E-01 10
  2 1 1 3.00000000E-01 10
  2 2 1 3.00000000E-01 10
  2 3 1 3.00000000E-01 10
  2 4 1 3.00000000E-01 10
  2 5 1 3.00000000E-01 10
  2 6 1 3.00000000E-01 10
  2 7 1 3.00000000E-01 10
  2 8 1 3.00000000E-01 10
  2 9 1 3.00000000E-01 10
  2 10 1 3.00000000E-01 10
  2 11 1 3.00000000E-01 10
  2 12 1 3.00000000E-01 10
  2 13 1 3.00000000E-01 10
  2 14 1 3.00000000E-01 10
  2 15 1 3.00000000E-01 10
  2 16 1 3.00000000E-01 10
  2 17 1 3.00000000E-01 10
  2 18 1 3.00000000E-01 10
  2 19 1 3.00000000E-01 10
  2 20 1 3.00000000E-01 10
  2 21 1 3.00000000E-01 10
  2 22 1 3.00000000E-01 10
  2 23 1 3.00000000E-01 10
  2 24 1 3.00000000E-01 10
  2 25 1 3.00000000E-01 10
  2 26 1 3.00000000E-01 10
  2 27 1 3.00000000E-01 10
  2 28 1 3.00000000E-01 10
  2 29 1 3.00000000E-01 10
  2 30 1 3.00000000E-01 10
  2 31 1 3.00000000E-01 10
  2 32 1 3.00000000E-01 10
  2 33 1 3.00000000E-01 10
  2 34 1 3.00000000E-01 10
  2 35 1 3.00000000E-01 10
  2 36 1 3.00000000E-01 10
  2 37 1 3.00000000E-01 10
  2 38 1 3.00000000E-01 10
  2 46 1 3.00000000E-01 10
  2 47 1 3.00000000E-01 10
  2 48 1 3.00000000E-01 10
  2 49 1 3.00000000E-01 10
  2 50 1 3.00000000E-01 10
  3 1 1 3.00000000E-01 10
  3 2 1 3.00000000E-01 10
  3 3 1 3.00000000E-01 10
  3 4 1 3.00000000E-01 10
  3 5 1 3.00000000E-01 10
  3 6 1 3.00000000E-01 10
  3 7 1 3.00000000E-01 10
  3 8 1 3.00000000E-01 10
  3 9 1 3.00000000E-01 10
  3 10 1 3.00000000E-01 10
  3 11 1 3.00000000E-01 10
  3 12 1 3.00000000E-01 10
  3 13 1 3.00000000E-01 10
  3 14 1 3.00000000E-01 10
  3 15 1 3.00000000E-01 10
  3 16 1 3.00000000E-01 10
  3 17 1 3.00000000E-01 10
  3 18 1 3.00000000E-01 10
  3 19 1 3.00000000E-01 10
  3 20 1 3.00000000E-01 10
  3 21 1 3.00000000E-01 10
  3 22 1 3.00000000E-01 10
  3 23 1 3.00000000E-01 10
  3 24 1 3.00000000E-01 10
  3 25 1 3.00000000E-01 10
  3 26 1 3.00000000E-01 10
  3 27 1 3.00000000E-01 10
  3 28 1 3.00000000E-01 10
  3 29 1 3.00000000E-01 10
  3 30 1 3.00000000E-01 10
  3 31 1 3.00000000E-01 10
  3 32 1 3.00000000E-01 10
  3 33 1 3.00000000E-01 10
  3 34 1 3.00000000E-01 10
  3 35 1 3.00000000E-01 10
  3 36 1 3.00000000E-01 10
  3 37 1 3.00000000E-01 10
  3 38 1 3.00000000E-01 10
  3 39 1 3.00000000E-01 10
  3 40 1 3.00000000E-01 10
  3 41 1 3.00000000E-01 10
  3 42 1 3.00000000E-01 10
  3 43 1 3.00000000E-01 10
  3 44 1 3.00000000E-01 10
  3 45 1 3.00000000E-01 10
  3 46 1 3.00000000E-01 10
  3 47 1 3.00000000E-01 10
  3 48 1 3.00000000E-01 10
  3 49 1 3.00000000E-01 10
  3 50 1 3.00000000E-01 10
  4 1 1 3.00000000E-01 10
  4 2 1 3.00000000E-01 10
  4 3 1 3.00000000E-01 10
  4 4 1 3.00000000E-01 10
  4 5 1 3.00000000E-01 10
  4 6 1 3.00000000E-01 10
  4 7 1 3.00000000E-01 10
  4 8 1 3.00000000E-01 10
  4 9 1 3.00000000E-01 10
  4 10 1 3.00000000E-01 10
  4 11 1 3.00000000E-01 10
  4 12 1 3.00000000E-01 10
  4 13 1 3.00000000E-01 10
  4 14 1 3.00000000E-01 10
  4 15 1 3.00000000E-01 10
  4 16 1 3.00000000E-01 10
  4 17 1 3.00000000E-01 10
  4 18 1 3.00000000E-01 10
  4 19 1 3.00000000E-01 10
  4 20 1 3.00000000E-01 10
  4 21 1 3.00000000E-01 10
  4 22 1 3.00000000E-01 10
  4 23 1 3.00000000E-01 10
  4 24 1 3.00000000E-01 10
  4 25 1 3.00000000E-01 10
  4 26 1 3.00000000E-01 10
  4 27 1 3.00000000E-01 10
  4 28 1 3.00000000E-01 10
  4 29 1 3.00000000E-01 10
  4 30 1 3.00000000E-01 10
  4 31 1 3.00000000E-01 10
  4 32 1 3.00000000E-01 10
  4 33 1 3.00000000E-01 10
  4 34 1 3.00000000E-01 10
  4 35 1 3.00000000E-01 10
  4 36 1 3.00000000E-01 10
  4 37 1 3.00000000E-01 10
  4 38 1 3.00000000E-01 10
  4 39 1 3.00000000E-01 10
  4 40 1 3.00000000E-01 10
  4 41 1 3.00000000E-01 10
  4 42 1 3.00000000E-01 10
  4 43 1 3.00000000E-01 10
  4 44 1 3.00000000E-01 10
  4 45 1 3.00000000E-01 10
  4 46 1 3.00000000E-01 10
  4 47 1 3.00000000E-01 10
  4 48 1 3.00000000E-01 10
  4 49 1 3.00000000E-01 10
  4 50 1 3.00000000E-01 10
  5 1 1 3.00000000E-01 10
  5 2 1 3.00000000E-01 10
  5 3 1 3.00000000E-01 10
  5 4 1 3.00000000E-01 10
  5 5 1 3.00000000E-01 10
  5 6 1 3.00000000E-01 10
  5 7 1 3.00000000E-01 10
  5 8 1 3.00000000E-01 10
  5 9 1 3.00000000E-01 10
  5 10 1 3.00000000E-01 10
  5 11 1 3.00000000E-01 10
  5 12 1 3.00000000E-01 10
  5 13 1 3.00000000E-01 10
  5 14 1 3.00000000E-01 10
  5 15 1 3.00000000E-01 10
  5 16 1 3.00000000E-01 10
  5 17 1 3.00000000E-01 10
  5 18 1 3.00000000E-01 10
  5 19 1 3.00000000E-01 10
  5 20 1 3.00000000E-01 10
  5 21 1 3.00000000E-01 10
  5 22 1 3.00000000E-01 10
  5 23 1 3.00000000E-01 10
  5 24 1 3.00000000E-01 10
  5 25 1 3.00000000E-01 10
  5 26 1 3.00000000E-01 10
  5 27 1 3.00000000E-01 10
  5 28 1 3.00000000E-01 10
  5 29 1 3.00000000E-01 10
  5 30 1 3.00000000E-01 10
  5 31 1 3.00000000E-01 10
  5 32 1 3.00000000E-01 10
  5 33 1 3.00000000E-01 10
  5 34 1 3.00000000E-01 10
  5 35 1 3.00000000E-01 10
  5 36 1 3.00000000E-01 10
  5 37 1 3.00000000E-01 10
  5 38 1 3.00000000E-01 10
  5 39 1 3.00000000E-01 10
  5 40 1 3.00000000E-01 10
  5 41 1 3.00000000E-01 10
  5 42 1 3.00000000E-01 10
  5 43 1 3.00000000E-01 10
  5 44 1 3.00000000E-01 10
  5 45 1 3.00000000E-01 10
  5 46 1 3.00000000E-01 10
  5 47 1 3.00000000E-01 10
  5 48 1 3.00000000E-01 10
  5 49 1 3.00000000E-01 10
  5 50 1 3.00000000E-01 10
  6 1 1 3.00000000E-01 10
  6 2 1 3.00000000E-01 10
  6 3 1 3.00000000E-01 10
  6 4 1 3.00000000E-01 10
  6 5 1 3.00000000E-01 10
  6 6 1 3.00000000E-01 10
  6 7 1 3.00000000E-01 10
  6 8 1 3.00000000E-01 10
  6 9 1 3.00000000E-01 10
  6 10 1 3.00000000E-01 10
  6 11 1 3.00000000E-01 10
  6 12 1 3.00000000E-01 10
  6 13 1 3.00000000E-01 10
  6 14 1 3.00000000E-01 10
  6 15 1 3.00000000E-01 10
  6 16 1 3.00000000E-01 10
  6 17 1 3.00000000E-01 10
  6 18 1 3.00000000E-01 10
  6 19 1 3.00000000E-01 10
  6 20 1 3.00000000E-01 10
  6 21 1 3.00000000E-01 10
  6 22 1 3.00000000E-01 10
  6 23 1 3.00000000E-01 10
  6 24 1 3.00000000E-01 10
  6 25 1 3.00000000E-01 10
  6 26 1 3.00000000E-01 10
  6 27 1 3.00000000E-01 10
  6 28 1 3.00000000E-01 10
  6 29 1 3.00000000E-01 10
  6 30 1 3.00000000E-01 10
  6 31 1 3.00000000E-01 10
  6 32 1 3.00000000E-01 10
  6 33 1 3.00000000E-01 10
  6 34 1 3.00000000E-01 10
  6 35 1 3.00000000E-01 10
  6 36 1 3.00000000E-01 10
  6 37 1 3.00000000E-01 10
  6 38 1 3.00000000E-01 10
  6 39 1 3.00000000E-01 10
  6 40 1 3.00000000E-01 10
  6 41 1 3.00000000E-01 10
  6 42 1 3.00000000E-01 10
  6 43 1 3.00000000E-01 10
  6 44 1 3.00000000E-01 10
  6 45 1 3.00000000E-01 10
  6 46 1 3.00000000E-01 10
  6 47 1 3.00000000E-01 10
  6 48 1 3.00000000E-01 10
  6 49 1 3.00000000E-01 10
  6 50 1 3.00000000E-01 10
END period  1

