# File generated by Flopy version 3.9.3 on 10/06/2025 at 14:05:47.
BEGIN options
  SAVE_FLOWS
  SAVE_SPECIFIC_DISCHARGE
  SAVE_SATURATION
END options

BEGIN griddata
  icelltype
    CONSTANT  0
  k  LAYERED
    INTERNAL  FACTOR  1.0
      4.05301156E-05  6.04041755E-05  8.64916462E-05  1.14817580E-04  1.48848398E-04  1.99096064E-04  2.81660895E-04  3.09951138E-04  4.10791487E-04  4.56225515E-04  4.27604731E-04  3.73133109E-04  3.15855024E-04  2.23332259E-04  1.51973480E-04  9.39014310E-05  5.43559581E-05  3.85547340E-05  3.50950868E-05  4.09264887E-05  4.98661927E-05  5.91002754E-05  7.15944625E-05  7.97479413E-05  8.73594661E-05  1.02343911E-04  9.56534117E-05  8.49198608E-05  9.13993249E-05  1.02243837E-04  1.12273556E-04  1.49683744E-04  2.19612865E-04  2.74479489E-04  3.66714517E-04  4.35964437E-04  5.42863738E-04  6.04310597E-04  4.64543991E-04  3.45184767E-04  3.25999189E-04  3.55993930E-04  2.95711415E-04  2.18788228E-04  1.45947939E-04  9.87360060E-05  6.93239078E-05  6.95248309E-05  7.40671821E-05  5.40176290E-05  3.79372214E-05  3.42934683E-05  3.79131816E-05  5.44275499E-05  8.43884773E-05  1.26420462E-04  2.41067703E-04  3.49550135E-04  4.60551912E-04  7.06223212E-04  7.71154836E-04  6.66570559E-04  5.02217328E-04  4.04667633E-04  3.12297353E-04  2.12554354E-04  1.68682091E-04  1.44393241E-04  1.40295408E-04  1.72165426E-04  2.15621156E-04  2.98933097E-04       1.00000000       1.00000000       1.00000000       1.00000000       1.00000000       1.00000000       1.00000000       1.00000000       1.00000000       1.00000000  4.15298186E-04  4.88779857E-04  4.89317075E-04  4.93805506E-04  4.16651097E-04  4.43557306E-04  5.57487947E-04  7.20176206E-04  7.07908010E-04  7.14024878E-04  6.32558833E-04  7.24403537E-04  7.87655415E-04  9.09093884E-04       0.00105510       0.00128808       0.00135060       0.00148688
      6.30875487E-05  7.68684355E-05  9.98585019E-05  1.40230327E-04  2.06681783E-04  2.69980694E-04  3.59469598E-04  4.57577951E-04  5.55043536E-04  4.95094767E-04  3.90298044E-04  3.39943566E-04  3.01874650E-04  2.11831551E-04  1.39783820E-04  8.86005058E-05  5.47307670E-05  4.28596561E-05  4.05568644E-05  5.00073511E-05  6.92387241E-05  8.83405737E-05  9.91312671E-05  1.09833258E-04  1.06315129E-04  1.10274064E-04  1.14607520E-04  9.25467408E-05  1.09953250E-04  1.25441104E-04  1.56107970E-04  1.99795031E-04  2.62673811E-04  3.03108811E-04  3.83304432E-04  4.43422834E-04  5.72681136E-04  5.90300420E-04  4.96267108E-04  4.41212240E-04  4.40317173E-04  3.67819664E-04  2.75686067E-04  2.03242293E-04  1.53983526E-04  1.17552884E-04  9.72765362E-05  9.47729743E-05  1.08534226E-04  8.54291604E-05  6.11961354E-05  5.37190244E-05  6.32037481E-05  9.45440552E-05  1.44182966E-04  2.26864446E-04  3.54618911E-04  5.06897364E-04  7.19452510E-04       0.00103761       0.00101170  9.25201224E-04  6.21351530E-04  4.78468331E-04  3.74193808E-04  2.36550084E-04  1.66413985E-04  1.46075137E-04  1.42649398E-04  1.55718051E-04  1.84095028E-04       1.00000000       1.00000000       1.00000000       1.00000000       1.00000000       1.00000000       1.00000000       1.00000000       1.00000000       1.00000000  5.36591862E-04  5.13426261E-04  5.62012545E-04  5.65343148E-04  5.00131321E-04  4.01788333E-04  3.54017742E-04  4.43751167E-04  5.00657130E-04  4.70176048E-04  4.51208500E-04  4.52053547E-04  5.46132633E-04  6.29485352E-04  7.85402581E-04  8.26113485E-04       0.00108517       0.00120132       0.00126141
      9.90040426E-05  1.04182254E-04  1.26080238E-04  1.78203802E-04  2.44785954E-04  3.12024960E-04  4.17845401E-04  5.86484792E-04  6.26919558E-04  5.52009093E-04  4.37336780E-04  3.45813576E-04  2.99273718E-04  1.94733497E-04  1.54560519E-04  9.56794887E-05  6.64949572E-05  5.54252931E-05  5.74347463E-05  7.18639130E-05  1.00360427E-04  1.26043309E-04  1.20000189E-04  1.34667019E-04  1.26235955E-04  1.20017305E-04  1.27324893E-04  1.41066930E-04  1.54001208E-04  1.73996849E-04  1.95256158E-04  2.03786432E-04  2.54726969E-04  3.14043070E-04  3.61111847E-04  4.24870523E-04  5.29838842E-04  5.54779021E-04  5.88760129E-04  6.02435587E-04  5.39713639E-04  4.12783153E-04  3.49853055E-04  2.65556986E-04  2.00944235E-04  1.70204924E-04  1.59740623E-04  1.67436386E-04  1.75366818E-04  1.33256865E-04  9.99052718E-05  8.71682132E-05  1.04234049E-04  1.44132791E-04  2.26962817E-04  3.42318061E-04  5.80215885E-04  8.62300571E-04       0.00118818       0.00156940       0.00164548       0.00124682  7.99909409E-04  5.18590600E-04  3.66466508E-04  2.36722379E-04  1.73030479E-04  1.45244951E-04  1.41685203E-04  1.52872046E-04  1.69006948E-04  2.33549843E-04       1.00000000       1.00000000       1.00000000       1.00000000       1.00000000       1.00000000       1.00000000       1.00000000  5.57895284E-04  5.68056654E-04  5.62784204E-04  5.04837837E-04  4.98141046E-04  4.28849715E-04  3.39163817E-04  2.78238091E-04  2.87632691E-04  3.04235087E-04  3.16260150E-04  2.77797622E-04  2.71089771E-04  3.59745184E-04  4.85179061E-04  6.35355385E-04  6.74432516E-04  9.27348807E-04       0.00106862       0.00115951
      1.34734146E-04  1.44839258E-04  1.78633316E-04  2.08248617E-04  2.79679021E-04  3.80424899E-04  5.70787932E-04  7.14011723E-04  6.27532660E-04  5.47714881E-04  4.83374771E-04  4.04757331E-04  3.21201495E-04  2.32812289E-04  1.84017568E-04  1.17461977E-04  7.90846825E-05  6.44396884E-05  6.81321627E-05  8.64767644E-05  1.14345516E-04  1.39584817E-04  1.71685889E-04  1.71134895E-04  1.50355825E-04  1.40232255E-04  1.42596639E-04  1.54559687E-04  1.42834370E-04  1.37463639E-04  1.66917608E-04  1.97806527E-04  2.35685016E-04  3.09439842E-04  3.45883359E-04  3.94175673E-04  4.76551679E-04  4.90334642E-04  6.04678178E-04  6.46718578E-04  5.34426487E-04  4.89888114E-04  4.26383689E-04  3.48071468E-04  2.79970525E-04  2.44768181E-04  2.58404133E-04  2.69736676E-04  2.76467390E-04  2.28001853E-04  1.97063355E-04  1.84997218E-04  2.04114437E-04  2.53998073E-04  3.88426182E-04  5.65810478E-04  9.15327226E-04       0.00129888       0.00183538       0.00246623       0.00245593       0.00151828  8.73168814E-04  5.44347917E-04  3.06545320E-04  1.90653576E-04  1.43128214E-04  1.27531661E-04  1.41254175E-04  1.50699081E-04  1.71356762E-04  2.81335466E-04  3.89485504E-04  4.43000317E-04       1.00000000       1.00000000  3.53112671E-04  4.30799497E-04  5.58186672E-04  5.92949102E-04  5.85429720E-04  5.66435279E-04  5.26673917E-04  5.24258590E-04  4.94533529E-04  3.22157207E-04  2.52398109E-04  1.85339537E-04  1.63979566E-04  1.67189352E-04  1.73908286E-04  1.67545723E-04  2.00117542E-04  2.89528677E-04  4.22107444E-04  5.38858818E-04  5.69888119E-04  8.23937356E-04       0.00101992       0.00106821
      1.66328202E-04  1.83169395E-04  2.32263817E-04  2.73513724E-04  3.58351099E-04  5.03881369E-04  7.10794760E-04  8.87542905E-04  7.72965373E-04  7.21442048E-04  6.03761214E-04  5.30982312E-04  3.99559503E-04  2.68652802E-04  2.08050362E-04  1.66744372E-04  1.06711092E-04  8.60640236E-05  8.10411958E-05  9.35328509E-05  1.20536846E-04  1.62998505E-04  2.23572780E-04  2.47600618E-04  1.94114711E-04  1.57202154E-04  1.50933617E-04  1.48463412E-04  1.24016986E-04  1.36782506E-04  1.64417912E-04  2.03380143E-04  2.54325947E-04  3.04431655E-04  3.76744861E-04  4.15044546E-04  4.81628434E-04  4.90799663E-04  6.25367567E-04  6.68855051E-04  4.97898286E-04  4.56473923E-04  4.66136927E-04  3.97142333E-04  3.48883099E-04  3.41971312E-04  3.42721026E-04  3.60264583E-04  3.39998398E-04  3.13115510E-04  3.25665111E-04  3.22390192E-04  3.45235652E-04  4.10608016E-04  6.73049595E-04  9.29595359E-04       0.00141902       0.00211944       0.00294479       0.00362245       0.00312202       0.00183845       0.00108112  5.59796463E-04  3.12974036E-04  1.76353817E-04  1.26064231E-04  1.13128284E-04  1.25408551E-04  1.40997581E-04  1.67913633E-04  2.86547816E-04  3.93150083E-04  4.25136881E-04  3.92977119E-04  3.74093506E-04  3.83250939E-04  4.95509827E-04  6.17599289E-04  7.10153719E-04  6.28811365E-04  5.58112127E-04  4.65743011E-04  3.93258563E-04  3.41438766E-04  2.76812323E-04  1.78662682E-04  1.23545789E-04  9.52871778E-05  1.18288770E-04  1.45470025E-04  1.52370572E-04  1.71559261E-04  2.48177520E-04  3.19769645E-04  4.12959877E-04  5.27654231E-04  6.12756043E-04  8.05938772E-04  9.98331622E-04
      1.98919646E-04  2.29951838E-04  2.79253232E-04  3.31146206E-04  4.03432001E-04  5.76714054E-04  8.57942621E-04  9.45746433E-04  8.05423129E-04  7.27719453E-04  6.46262274E-04  5.77495899E-04  4.35982210E-04  3.22865943E-04  2.68876087E-04  2.04267722E-04  1.56410597E-04  1.16637316E-04  1.10716462E-04  1.10857355E-04  1.52457127E-04  1.97003043E-04  2.66794374E-04  2.91526033E-04  2.18189321E-04  1.74805794E-04  1.76624796E-04  1.67400984E-04  1.38401950E-04  1.58535588E-04  1.83831952E-04  2.23898489E-04  2.62066606E-04  2.84025096E-04  3.58934718E-04  4.10511391E-04  4.64394252E-04  4.77316760E-04  4.69319813E-04  5.08654896E-04  4.34568751E-04  4.52824752E-04  5.01224888E-04  4.55909758E-04  3.77787044E-04  3.98983527E-04  3.92981060E-04  4.16517636E-04  4.17895440E-04  3.96059671E-04  4.35895597E-04  4.79232442E-04  5.34633951E-04  6.18136876E-04  9.48980140E-04       0.00122784       0.00196792       0.00285790       0.00355131       0.00410017       0.00328822       0.00221116       0.00119074  5.94164090E-04  3.17057187E-04  1.90046616E-04  1.25961684E-04  1.06103864E-04  1.12791444E-04  1.59575982E-04  2.00223920E-04  3.18205071E-04  4.17141244E-04  4.55954694E-04  3.89509893E-04  4.28401050E-04  4.59161645E-04  5.47431720E-04  7.11406736E-04  7.61010684E-04  6.55444184E-04  4.97073905E-04  3.47332214E-04  2.77869985E-04  2.44368857E-04  1.73019813E-04  1.12705980E-04  8.19009729E-05  6.49870781E-05  8.31313373E-05  1.08184264E-04  1.27729145E-04  1.52456448E-04  1.81740948E-04  2.34183822E-04  2.46736504E-04  2.81855431E-04  3.91602400E-04  5.06456398E-04  7.16089659E-04
      1.87136349E-04  2.08651050E-04  2.39490837E-04  2.96078069E-04  4.72285465E-04  6.44351065E-04  8.85596382E-04       0.00103824  8.95859674E-04  8.12436047E-04  6.91679927E-04  5.84033240E-04  4.91233387E-04  3.91406783E-04  3.30808747E-04  2.47108954E-04  1.97650422E-04  1.65201863E-04  1.36164657E-04  1.26213747E-04  1.73133232E-04  2.16880314E-04  3.03323090E-04  2.96678420E-04  2.90126462E-04  2.29083209E-04  1.77413432E-04  1.52862773E-04  1.49694996E-04  1.81103487E-04  2.01506424E-04  2.87385399E-04  2.94078491E-04  2.79250467E-04  3.38558108E-04  3.84845509E-04  4.23864869E-04  4.41646931E-04  4.18151234E-04  3.43591873E-04  3.25009426E-04  4.31686773E-04  4.71705416E-04  4.74296588E-04  5.51982550E-04  4.47441777E-04  4.54887282E-04  4.83342010E-04  5.21004200E-04  5.87641300E-04  5.60022076E-04  5.87940507E-04  7.69369071E-04  8.95267352E-04       0.00124726       0.00165696       0.00232431       0.00292052       0.00408531       0.00426783       0.00331449       0.00230214       0.00130764  5.91206073E-04  3.38468584E-04  1.91636951E-04  1.38299481E-04  1.11883281E-04  1.16806841E-04  1.71611580E-04  2.37615352E-04  3.32457275E-04  3.96856252E-04  4.61957417E-04  4.75015840E-04  5.22708811E-04  5.64180606E-04  6.13483367E-04  7.27499370E-04  7.65625329E-04  6.73049013E-04  4.74047585E-04  2.80042848E-04  2.13863226E-04  1.57031071E-04  1.02368789E-04  7.08031585E-05  6.20766834E-05  5.70884906E-05  6.50991472E-05  7.47568702E-05  9.66822263E-05  1.22515169E-04  1.24264209E-04  1.71075409E-04  1.94294611E-04  2.47142344E-04  3.32582315E-04  5.02823852E-04  7.67186750E-04
      1.23623817E-04  1.40193777E-04  1.80781208E-04  2.44703231E-04  4.37138486E-04  6.91379770E-04  8.87844712E-04       0.00111657       0.00110846  9.50903690E-04  7.86053638E-04  6.96591102E-04  5.90917499E-04  4.75612159E-04  4.14639740E-04  2.93399731E-04  2.15875334E-04  1.90457155E-04  1.73859729E-04  1.76462531E-04  2.28484697E-04  2.79580033E-04  3.46685372E-04  3.87677956E-04  3.77396413E-04  2.63037781E-04  1.87289228E-04  1.73105431E-04  1.62575937E-04  2.13924317E-04  2.59942893E-04  3.01010648E-04  2.91073433E-04  3.13755096E-04  3.51610885E-04  3.88145621E-04  4.64474491E-04  3.73192531E-04  3.01881427E-04  2.36352191E-04  2.47903983E-04  2.94794262E-04  3.42411754E-04  3.80959672E-04  4.24198457E-04  4.22332715E-04  4.64554818E-04  5.90093201E-04  6.80630794E-04  7.12133090E-04  6.57258439E-04  7.43191806E-04       0.00105149       0.00131764       0.00176063       0.00230286       0.00272407       0.00349214       0.00438682       0.00384950       0.00354100       0.00201529       0.00112249  6.16894278E-04  3.41786217E-04  2.09933030E-04  1.69844570E-04  1.27758365E-04  1.33632217E-04  1.81716925E-04  2.67706579E-04  3.66182823E-04  4.49563144E-04  5.52794291E-04  6.17362140E-04  6.47123298E-04  7.08140898E-04  8.37238505E-04  7.69358873E-04  9.18284524E-04  7.17851846E-04  4.88341926E-04  2.73645436E-04  2.04066304E-04  1.39327510E-04  8.61328677E-05  5.56950225E-05  5.37805492E-05  5.39233248E-05  5.20334870E-05  6.41969091E-05  7.99230433E-05  9.92793856E-05  1.08985812E-04  1.11733613E-04  1.31283471E-04  2.08405246E-04  3.41661352E-04  6.51647104E-04  8.76198057E-04
      9.50408867E-05  1.02601924E-04  1.32664121E-04  2.05514778E-04  3.64578707E-04  6.12635980E-04  8.78304592E-04       0.00108291       0.00111753  9.48154484E-04  7.63916488E-04  7.26796376E-04  6.75639138E-04  5.39683659E-04  4.38448129E-04  3.32054158E-04  2.65398005E-04  2.49360688E-04  2.46868779E-04  2.63490045E-04  3.12722812E-04  3.34040669E-04  4.08544345E-04  4.54437267E-04  3.93775558E-04  2.82957859E-04  2.41239141E-04  2.60987482E-04  2.78191641E-04  3.51160221E-04  3.80980084E-04  3.41105611E-04  3.69720109E-04  3.79696983E-04  4.78001864E-04  4.64828801E-04  4.78710447E-04  3.64527838E-04  2.60674361E-04  1.97443083E-04  1.79373970E-04  2.12729520E-04  2.49032824E-04  2.52871619E-04  2.67295846E-04  3.26146604E-04  3.93831288E-04  4.87074838E-04  5.47097724E-04  6.45530468E-04  6.91588735E-04  8.59528664E-04       0.00117692       0.00151911       0.00170582       0.00204985       0.00219719       0.00277871       0.00392155       0.00379442       0.00354281       0.00196294       0.00104248  4.97397676E-04  3.01500899E-04  2.05533725E-04  1.66990620E-04  1.35448223E-04  1.66416867E-04  2.08145803E-04  3.26380046E-04  4.76017036E-04  5.12708118E-04  6.52543036E-04  7.95869700E-04  9.79800088E-04       0.00110822       0.00111448       0.00109571       0.00106354  8.60060255E-04  4.88519281E-04  2.77919734E-04  2.04331824E-04  1.36851333E-04  8.46527400E-05  5.46820113E-05  5.01522688E-05  4.50048295E-05  4.16274997E-05  4.24849277E-05  5.51119613E-05  6.54401915E-05  7.65757771E-05  8.24781988E-05  1.02989531E-04  1.66991745E-04  2.99714137E-04  5.17704912E-04  7.54616534E-04
      7.70751722E-05  8.23422888E-05  1.11673740E-04  1.68798288E-04  2.88794050E-04  4.93235129E-04  7.45642930E-04  9.51697119E-04  9.30907321E-04  8.52137920E-04  7.10157833E-04  6.84077153E-04  6.47929730E-04  5.61909983E-04  4.67307516E-04  3.64054984E-04  3.31716185E-04  2.83695098E-04  2.66448633E-04  2.73904569E-04  2.49596157E-04  2.86953213E-04  3.25977337E-04  3.54218925E-04  3.30566700E-04  2.95069010E-04  3.18143775E-04  3.58461309E-04  4.25291527E-04  5.16386190E-04  5.18815126E-04  5.00018553E-04  5.07748013E-04  4.52625772E-04  5.61704044E-04  5.38107881E-04  4.58118107E-04  3.21541680E-04  2.40169432E-04  1.91702857E-04  1.63294375E-04  1.66703462E-04  1.88205508E-04  1.77867032E-04  1.81649889E-04  2.44246144E-04  2.97816267E-04  3.83585430E-04  3.89312006E-04  4.96324850E-04  5.91444492E-04  7.43447221E-04       0.00112373       0.00141026       0.00148733       0.00170159       0.00193337       0.00234451       0.00337762       0.00368240       0.00265354       0.00153059  8.14153580E-04  4.29971755E-04  3.10481992E-04  2.54539103E-04  1.97394945E-04  1.70502152E-04  1.99316341E-04  2.30411388E-04  3.25469859E-04  4.66517825E-04  6.73059064E-04  8.84182674E-04       0.00116920       0.00139121       0.00165767       0.00169095       0.00171175       0.00150708  9.47988204E-04  5.60056729E-04  3.41815564E-04  2.26232378E-04  1.61103439E-04  1.10180560E-04  7.61661795E-05  5.88009910E-05  4.96340411E-05  4.23216746E-05  3.60472016E-05  4.16931774E-05  4.05871809E-05  5.55733908E-05  6.20818125E-05  8.76295380E-05  1.35397325E-04  2.33962220E-04  3.74534012E-04  5.51271563E-04
      6.05319001E-05  7.35341673E-05  9.20705497E-05  1.35097449E-04  2.28067162E-04  3.73398623E-04  5.36634005E-04  7.26215367E-04  7.41312862E-04  7.56072812E-04  6.45862737E-04  6.67473301E-04  6.31396193E-04  5.79321873E-04  4.88547026E-04  3.95349052E-04  3.51012296E-04  2.86040866E-04  2.41237081E-04  2.09792226E-04  2.03902154E-04  2.01098776E-04  2.14033134E-04  2.00066855E-04  2.54387019E-04  2.87450152E-04  3.62477472E-04  4.32444659E-04  5.78905409E-04  6.08347077E-04  6.58231787E-04  6.35884237E-04  6.68391637E-04  6.62239475E-04  6.56059769E-04  5.27558324E-04  4.29078529E-04  3.21825600E-04  2.50129428E-04  1.95695669E-04  1.73213659E-04  1.41704193E-04  1.65809664E-04  1.52491799E-04  1.59303978E-04  2.06821482E-04  2.43909730E-04  3.06057938E-04  3.13153568E-04  3.73308081E-04  4.88656806E-04       1.00000000       1.00000000       1.00000000       1.00000000       0.00161413       0.00210177       0.00259534       0.00295211       0.00300685       0.00219101       0.00129713  6.62060687E-04  3.94546019E-04  3.30340641E-04  3.06428294E-04  2.52250233E-04  2.31568624E-04  2.68333533E-04  3.16712976E-04  4.03454574E-04  5.66575017E-04  8.36954607E-04       0.00118889       0.00159913       0.00186439       0.00220723       0.00244641       0.00232247       0.00184107       0.00120280  6.90357837E-04  4.02465890E-04  2.78366691E-04  1.98014507E-04  1.63761511E-04  1.06971255E-04  7.24075168E-05  5.32949974E-05  3.57091485E-05  3.09197979E-05  2.78711862E-05  2.95324353E-05  3.79498063E-05  4.66506317E-05  6.41887558E-05  1.03783461E-04  1.75692424E-04  2.69727258E-04  4.19526555E-04
      5.48508906E-05  6.62391321E-05  7.82041316E-05  1.01761849E-04  1.73090986E-04  2.88755342E-04  4.12413967E-04  5.74807598E-04  6.15822617E-04  6.14288496E-04  6.46444038E-04  7.71733001E-04  8.80302706E-04  7.91021448E-04  6.66224107E-04  4.51431051E-04  3.70697177E-04  2.93439002E-04  2.23882341E-04  1.53886445E-04  1.35004942E-04  1.48646504E-04  1.46041624E-04  1.38153012E-04  2.09621536E-04  3.15999664E-04  3.91761100E-04  5.15422059E-04  5.58236252E-04  5.57056990E-04  6.37897083E-04  7.10938798E-04  7.52685022E-04  7.80399164E-04  7.46937469E-04  5.79251675E-04  4.94973036E-04  3.77314806E-04  2.94067099E-04  2.28170256E-04  1.87194806E-04  1.49546840E-04  1.31900442E-04  1.32213162E-04  1.40287719E-04  1.76722580E-04  2.30859878E-04  2.62408090E-04  2.59211607E-04  3.34956858E-04       1.00000000       1.00000000       1.00000000       1.00000000       1.00000000       1.00000000       1.00000000       0.00247814       0.00293873       0.00285525       0.00229208       0.00157891  7.67810736E-04  4.72717220E-04  4.00690769E-04  3.60979990E-04  3.70681829E-04  3.27324184E-04  3.47605615E-04  3.90239339E-04  4.74644359E-04  6.89590971E-04  9.36462743E-04       0.00147887       0.00228003       0.00265247       0.00271107       0.00302144       0.00308121       0.00225478       0.00148818  8.45500578E-04  5.28761574E-04  3.39530292E-04  2.75935318E-04  2.13776948E-04  1.59825266E-04  9.59344325E-05  6.56510092E-05  4.11553337E-05  2.97325993E-05  2.53324397E-05  2.63626183E-05  3.02393649E-05  3.52077560E-05  4.81125150E-05  7.06041381E-05  1.18724786E-04  1.77283755E-04  3.32186431E-04
      4.76720452E-05  5.36975470E-05  6.40270009E-05  8.55210625E-05  1.29531128E-04  2.35369604E-04  3.69117440E-04  4.91910847E-04  5.66057861E-04  6.61542018E-04  7.69815796E-04  9.80613055E-04       0.00134697       0.00119389  9.17562691E-04  5.39940270E-04  3.38721392E-04  2.49823160E-04  2.17868853E-04  1.53548527E-04  1.16931600E-04  1.14806278E-04  1.19132329E-04  1.50498019E-04  1.92948719E-04  2.58469896E-04  3.55968310E-04  5.07560403E-04  6.14057657E-04  5.52253177E-04  5.56963806E-04  6.18908865E-04  7.19745333E-04  7.65914667E-04  7.76312198E-04  6.96782488E-04  5.57984225E-04  4.33928421E-04  3.30154406E-04  2.26071221E-04  1.80078454E-04  1.42418297E-04  1.32899316E-04  1.57057977E-04  1.58078823E-04  2.19621696E-04  2.81303423E-04  2.95012782E-04  2.90852156E-04  3.58304416E-04       1.00000000       1.00000000       1.00000000       1.00000000       1.00000000       1.00000000       1.00000000       1.00000000       0.00318536       0.00323961       0.00266700       0.00185117  9.93592897E-04  6.09989860E-04  5.05605247E-04  4.46642603E-04  4.25473865E-04  4.32467787E-04  4.24372382E-04  4.84944787E-04  5.19698719E-04  7.07555407E-04       0.00104745       0.00172786       0.00283420       0.00315988       0.00309223       0.00337929       0.00315169       0.00242855       0.00181776       0.00112703  7.39124216E-04  5.61648242E-04  3.82362360E-04  3.31993292E-04  2.73679849E-04  1.56451967E-04  1.01457049E-04  5.76576955E-05  3.61897085E-05  3.10658555E-05  3.62349189E-05  3.78993448E-05  3.64064222E-05  4.58675453E-05  6.33600035E-05  9.84488122E-05  1.56593542E-04  3.24751982E-04
      3.40447392E-05  4.03395752E-05  5.15669332E-05  7.33720080E-05  1.19265140E-04  2.15753913E-04  3.15553392E-04  4.22818043E-04  5.83351551E-04  7.61426830E-04  9.21347062E-04       0.00121147       0.00173481       0.00163599       0.00123397  7.35799037E-04  3.65011161E-04  2.51498694E-04  2.21214218E-04  1.55115442E-04  1.17796269E-04  9.29384260E-05  1.10843726E-04  1.49510003E-04  1.97706495E-04  2.38703695E-04  3.30106617E-04  4.49117651E-04  5.88039518E-04  5.46709227E-04  4.92254841E-04  5.99252733E-04  6.53300434E-04  6.61834725E-04  8.05148215E-04  7.31496548E-04  5.78101317E-04  4.55527683E-04  2.83228466E-04  2.13539960E-04  1.84975664E-04  1.59656163E-04  1.81726712E-04  2.17640889E-04  2.32844555E-04  2.63914718E-04  3.15600447E-04  3.94646719E-04  3.73294965E-04  4.28729807E-04  4.34512389E-04       1.00000000       1.00000000       1.00000000       1.00000000       1.00000000       1.00000000       0.00367407       0.00365627       0.00411212       0.00332739       0.00245841       0.00157745       0.00100036  6.84447936E-04  4.67631267E-04  4.00967042E-04  4.07107252E-04  4.54012916E-04  5.21746743E-04  5.52236995E-04  7.56556479E-04       0.00111492       0.00180104       0.00280820       0.00321190       0.00357043       0.00343225       0.00340327       0.00299921       0.00213786       0.00133582  8.95323542E-04  7.83420168E-04  5.73475612E-04  5.25034421E-04  4.23290224E-04  2.79317998E-04  1.71096821E-04  1.08679456E-04  7.04986354E-05  5.16373887E-05  4.80549400E-05  5.44642639E-05  5.17891354E-05  5.19325757E-05  6.66856608E-05  9.22008434E-05  1.66176868E-04  3.31838416E-04
      2.61857858E-05  3.09651320E-05  4.01478707E-05  5.72712161E-05  1.06719080E-04  1.69133379E-04  2.64183502E-04  4.34842630E-04  6.91243447E-04       0.00107726       0.00131784       0.00160595       0.00194245       0.00182213       0.00133235  7.26466533E-04  3.78328919E-04  2.69159791E-04  1.90500137E-04  1.30396827E-04  1.03232085E-04  9.50543132E-05  1.05977640E-04  1.45410886E-04  2.09002623E-04  2.55223264E-04  3.17788072E-04  3.92525923E-04  4.96672292E-04  5.01796312E-04  4.25378821E-04  4.56107809E-04  5.02831768E-04  5.90690644E-04  7.21266610E-04  6.08357019E-04  4.51971806E-04  3.69029905E-04  3.11536349E-04  2.11071472E-04  1.96040475E-04  1.97728880E-04  1.93381050E-04  2.73597460E-04  3.43375218E-04  3.84726406E-04  4.42236196E-04  5.29029965E-04  4.98045469E-04  4.45152749E-04  4.68880316E-04  5.10272104E-04       1.00000000       1.00000000       1.00000000       1.00000000       0.00291795       0.00375588       0.00426485       0.00484473       0.00428211       0.00323121       0.00230847       0.00145672  9.30285954E-04  5.90985718E-04  3.88230042E-04  3.20892994E-04  3.66783643E-04  3.61655466E-04  4.51048370E-04  6.66607870E-04  9.97220865E-04       0.00153795       0.00226659       0.00285763       0.00305566       0.00346399       0.00367179       0.00355850       0.00269738       0.00178024       0.00132342       0.00126020       0.00104210  7.67873401E-04  6.33050089E-04  4.76173591E-04  3.00044795E-04  1.94041757E-04  1.17516000E-04  9.12734346E-05  7.91997688E-05  9.23265138E-05  8.66121263E-05  7.56777174E-05  9.58512703E-05  1.10543067E-04  1.63632678E-04  2.79812541E-04
      2.29272664E-05  2.60880479E-05  3.53973446E-05  5.22339299E-05  8.62281207E-05  1.46609498E-04  2.52626080E-04  4.51108121E-04  7.76883797E-04       0.00132255       0.00183719       0.00202697       0.00209159       0.00179074       0.00105036  6.43559072E-04  3.67522046E-04  2.24910410E-04  1.73764386E-04  1.25872054E-04  1.12554907E-04  1.04613552E-04  1.19389403E-04  1.57610116E-04  2.23112559E-04  2.73722739E-04  3.32547119E-04  3.82512010E-04  4.81282739E-04  4.60908777E-04  3.49937269E-04  3.60295846E-04  3.38087819E-04  4.51263884E-04  5.79163490E-04  5.55773665E-04  4.44962976E-04  3.61736032E-04  2.93465032E-04  2.54600791E-04  2.49830025E-04  2.40546934E-04  2.96454178E-04  4.26782728E-04  4.94875114E-04  5.55061502E-04  5.85730731E-04  6.48809923E-04  5.78606850E-04  4.79522510E-04  4.71187901E-04  5.10502141E-04  5.81580447E-04  7.81018520E-04       0.00139322       0.00225557       0.00298487       0.00393436       0.00513371       0.00529578       0.00514114       0.00363908       0.00249219       0.00156141       0.00100483  6.89388563E-04  4.25151045E-04  3.22613982E-04  2.90865544E-04  2.85837427E-04  3.73294740E-04  5.30570280E-04  7.66070249E-04       0.00118864       0.00160650       0.00220450       0.00263880       0.00295533       0.00307210       0.00365382       0.00336823       0.00239643       0.00203902       0.00176979       0.00169951       0.00114103  8.26083656E-04  6.58988953E-04  5.00224032E-04  3.26591777E-04  2.09202388E-04  1.75058104E-04  1.59852107E-04  1.81995066E-04  1.66861340E-04  1.28912249E-04  1.32162706E-04  1.49339537E-04  1.97446406E-04  2.82038702E-04
      2.14110769E-05  2.64405026E-05  3.70202288E-05  5.06103679E-05  8.24613380E-05  1.37105235E-04  2.67233700E-04  4.44107660E-04  7.78074784E-04       0.00143099       0.00199210       0.00240094       0.00226787       0.00156312  9.24602694E-04  5.56412580E-04  3.34861322E-04  2.10955223E-04  1.42732271E-04  9.77164964E-05  9.36098929E-05  1.14720681E-04  1.48610628E-04  1.85598949E-04  2.70632755E-04  3.63471718E-04  3.59117685E-04  3.53549607E-04  4.57229691E-04  4.59494273E-04  3.47922440E-04  3.12105229E-04  3.40439778E-04  4.88814499E-04  6.36959848E-04  6.44385282E-04  5.54616031E-04  4.31861828E-04  3.29544901E-04  3.12636773E-04  3.28452459E-04  3.33616377E-04  4.03790036E-04  5.53575461E-04  6.55947098E-04  7.61974137E-04  7.40611072E-04  7.14677526E-04  5.91456890E-04  4.81722294E-04  4.79552749E-04  4.85972589E-04  5.41275600E-04  6.69143163E-04       0.00123124       0.00199874       0.00287998       0.00368466       0.00435513       0.00486146       0.00445268       0.00351920       0.00252974       0.00153548       0.00107875  7.89108065E-04  5.55309583E-04  3.64831765E-04  2.81703239E-04  2.39235209E-04  2.71484411E-04  4.15762654E-04  6.26517260E-04  8.16935873E-04       0.00101884       0.00157761       0.00209578       0.00261369       0.00292596       0.00318668       0.00343570       0.00308483       0.00248177       0.00224455       0.00215187       0.00138734       0.00101586  7.98231323E-04  6.63777414E-04  5.37719478E-04  4.35519099E-04  3.45330985E-04  3.08244356E-04  3.40484814E-04  3.05943158E-04  2.29745920E-04  2.04466799E-04  2.18841497E-04  2.75229919E-04  3.68932062E-04
      2.18231507E-05  2.47233602E-05  3.26899026E-05  3.78565383E-05  6.46490298E-05  1.03861879E-04  1.98170979E-04  3.40875587E-04  7.08917971E-04       0.00136295       0.00183308       0.00220451       0.00198095       0.00129755  7.74109270E-04  5.27813565E-04  3.15520114E-04  1.80814575E-04  1.20134282E-04  8.42741283E-05  8.48981144E-05  1.02938219E-04  1.59452137E-04  2.40165973E-04  3.42357671E-04  4.13921312E-04  4.02044871E-04  4.67270014E-04  5.07626683E-04  4.92717306E-04  4.16264404E-04  3.56964634E-04  4.43487694E-04  5.92197425E-04  7.95060846E-04  7.36121632E-04  5.88801379E-04  4.77764950E-04  4.35675068E-04  4.44502609E-04  4.69537995E-04  5.51813382E-04  5.96009117E-04  7.04641376E-04  7.40416193E-04  7.56553141E-04  6.91409844E-04  6.54090242E-04  6.22676918E-04  5.10252779E-04  4.46006850E-04  4.28326370E-04  4.77121037E-04  5.92729193E-04  9.56311900E-04       0.00180658       0.00277243       0.00346687       0.00400877       0.00473287       0.00399167       0.00297857       0.00206463       0.00148078       0.00109450  7.12476962E-04  5.41220070E-04  3.06794886E-04  2.14863266E-04  1.89441276E-04  1.67529661E-04  2.62136039E-04  4.11999345E-04  5.83765629E-04  7.45780101E-04       0.00105327       0.00133153       0.00199242       0.00227198       0.00256191       0.00309613       0.00321793       0.00261210       0.00211106       0.00177612       0.00143686       0.00105519  9.01045627E-04  7.33454313E-04  6.51179148E-04  7.60534246E-04  6.93579470E-04  5.77842418E-04  5.12008056E-04  4.65646020E-04  3.67483889E-04  2.72806667E-04  2.79667122E-04  3.03721854E-04  3.69613724E-04