# File generated by Flopy version 3.9.2 on 07/03/2025 at 16:33:36.
BEGIN options
  SAVE_FLOWS
  SAVE_SPECIFIC_DISCHARGE
  SAVE_SATURATION
END options

BEGIN griddata
  icelltype
    CONSTANT  0
  k  LAYERED
    INTERNAL  FACTOR  1.0
      4.19313292E-04  4.45997925E-04  5.13423176E-04  6.12976961E-04  6.98641466E-04  6.79144694E-04  5.87403250E-04  4.81114606E-04  3.78077792E-04  3.19184503E-04  3.40081053E-04  3.64528707E-04  4.24543832E-04  5.80773398E-04  8.04614509E-04  7.80777074E-04  6.50925271E-04  4.45561105E-04  2.74440943E-04  2.39848741E-04  2.41400048E-04  2.69590470E-04  3.40836792E-04  4.25075268E-04  5.86196780E-04  8.03619914E-04       0.00102518       0.00110299       0.00119767       0.00124975       0.00114763  9.21950559E-04  5.67423820E-04  3.51444934E-04  2.16531858E-04  1.38052259E-04  8.96074635E-05  5.98690676E-05  4.49830986E-05  4.31090775E-05  5.29118406E-05  7.33078996E-05  8.89195289E-05  9.41763719E-05  9.58036107E-05  9.66999651E-05  9.32785479E-05  9.51601396E-05  9.47856242E-05  1.03647682E-04  1.13730996E-04  1.31816647E-04  1.69113555E-04  2.88330863E-04  5.45847346E-04       0.00107059       0.00179688       0.00221813       0.00238659       0.00216200       0.00144066  8.81615968E-04  6.09308248E-04  4.25535720E-04  3.73019226E-04  3.46939312E-04  3.46920016E-04  2.72063131E-04  2.06402023E-04  1.56452035E-04  1.04516905E-04  8.10575511E-05  6.48786954E-05  7.00519304E-05  1.01137812E-04  1.36561677E-04  1.70310552E-04  2.19813475E-04  2.96343263E-04  3.28563969E-04  2.72746489E-04  2.06926386E-04  1.97471934E-04  1.78494971E-04  1.74686080E-04  1.49115891E-04  1.57057962E-04  1.79353796E-04  2.35340747E-04  2.96690880E-04  4.08305554E-04  4.83221753E-04  4.52497567E-04  4.71926411E-04  5.46065101E-04  5.93356264E-04  5.34920546E-04  5.07641700E-04  5.82846231E-04  5.38908353E-04
      3.57626210E-04  4.17707197E-04  5.54594328E-04  7.20975804E-04  7.89912359E-04  8.27846932E-04  7.86275661E-04  7.03800353E-04  4.91365965E-04  3.87382315E-04  3.49628885E-04  3.63995438E-04  3.85826454E-04  4.64071258E-04  5.04709722E-04  5.64333051E-04  5.63881127E-04  4.20794269E-04  2.57802603E-04  2.11844570E-04  1.84976510E-04  1.84241842E-04  2.52704514E-04  3.45697685E-04  4.44862613E-04  6.26638415E-04  9.09807452E-04  9.92942718E-04       0.00103673       0.00106250  8.83198285E-04  6.69590139E-04  3.99716751E-04  2.23582101E-04  1.51933011E-04  1.05071136E-04  6.64288818E-05  4.29803622E-05  3.40393526E-05  3.53996074E-05  4.22567209E-05  6.64116524E-05  9.74234208E-05  1.08523061E-04  1.16403178E-04  1.15309958E-04  1.09707857E-04  9.32911717E-05  9.23910193E-05  1.01572237E-04  1.16603602E-04  1.47557133E-04  1.61597127E-04  2.28419172E-04  4.78039961E-04  9.13149153E-04       0.00161375       0.00216484       0.00258665       0.00228817       0.00138051  8.11133592E-04  5.43027476E-04  3.53299693E-04  3.30996932E-04  3.21135041E-04  2.93256977E-04  2.06836412E-04  1.60838303E-04  1.14233611E-04  8.02274881E-05  5.54261642E-05  4.68523067E-05  5.04293093E-05  7.33975248E-05  9.89254695E-05  1.35192575E-04  1.75340581E-04  2.26329706E-04  2.96648825E-04  2.99735431E-04  2.86096183E-04  3.07509559E-04  2.71915429E-04  2.49458768E-04  2.24507312E-04  2.40994385E-04  2.56393017E-04  3.19405692E-04  3.92190501E-04  4.15796152E-04  3.76604497E-04  3.90591711E-04  4.19422606E-04  4.73904918E-04  4.50032821E-04  4.29344364E-04  4.63596167E-04  5.21838141E-04  5.30218298E-04
      3.22698790E-04  4.44038160E-04  5.34775550E-04  7.59353745E-04  8.34945939E-04  8.48731317E-04  7.97608634E-04  6.57149707E-04  5.19921072E-04  3.83620121E-04  3.05808440E-04  3.28657043E-04  3.15264391E-04  3.42188694E-04  4.06929496E-04  4.67440026E-04  4.36955306E-04  3.24938272E-04  2.37905508E-04  1.76985748E-04  1.50003267E-04  1.50938155E-04  2.19289432E-04  2.78736406E-04  3.49903770E-04  5.22836810E-04  7.84312026E-04  9.32015537E-04  9.21501429E-04  8.05172720E-04  6.56023971E-04  4.30283399E-04  2.47754419E-04  1.41648750E-04  1.06283267E-04  6.90178786E-05  4.88494188E-05  3.34980505E-05  2.82076071E-05  3.28114329E-05  4.10746979E-05  6.38181300E-05  9.11771785E-05  1.24034967E-04  1.17768861E-04  1.24227299E-04  1.16971118E-04  7.19196760E-05  7.84817094E-05  1.07001746E-04  1.25486986E-04  1.41503333E-04  1.60325755E-04  2.16393280E-04  3.58948193E-04  7.22688215E-04       0.00134571       0.00207246       0.00235432       0.00209641       0.00138727  7.20621611E-04  4.68773389E-04  3.29791335E-04  3.06492555E-04  2.69544544E-04  2.37762666E-04  1.75496243E-04  1.28719228E-04  8.98043363E-05  6.35876495E-05  4.58990835E-05  4.10116845E-05  3.87615728E-05  4.73565015E-05  6.60757796E-05  9.46515138E-05  1.25666178E-04  1.67504506E-04  2.40780457E-04  2.90035823E-04  3.08629998E-04  3.72982904E-04  4.21799137E-04  3.82447382E-04  3.92619288E-04  4.13661386E-04  4.16860392E-04  4.12106689E-04  4.46286344E-04  4.08501626E-04  3.66244320E-04  3.51254537E-04  3.47530702E-04  3.62220133E-04  3.71918752E-04  4.38410993E-04  4.72761662E-04  4.71345003E-04  5.08699624E-04
      2.50592362E-04  3.26997659E-04  5.05303673E-04  6.80996396E-04  9.72766837E-04       0.00118018  9.82075348E-04  7.66194775E-04  5.30990597E-04  3.75614414E-04  2.87616916E-04  2.73290934E-04  2.78151390E-04  2.94332160E-04  3.35648801E-04  3.87642125E-04  3.74910625E-04  2.80999870E-04  2.07726567E-04  1.96275578E-04  1.91507876E-04  1.65669757E-04  1.95917295E-04  2.36762222E-04  3.03804001E-04  4.60109673E-04  7.24021927E-04  9.27908288E-04  9.08901682E-04  6.92634145E-04  4.96824214E-04  3.09284718E-04  1.78685485E-04  1.21147263E-04  9.09971059E-05  6.14814562E-05  4.45023870E-05  3.12377852E-05  2.61713903E-05  3.15723883E-05  4.31584413E-05  6.75276824E-05  9.03841137E-05  1.18405122E-04  1.08639826E-04  9.86554660E-05  9.42696788E-05  7.24022393E-05  8.02415379E-05  1.11698129E-04  1.23175603E-04  1.46401348E-04  1.67479928E-04  2.57153326E-04  3.83885694E-04  6.65850122E-04       0.00127470       0.00179698       0.00197529       0.00169528       0.00113083  6.08796778E-04  3.88179556E-04  2.85502989E-04  2.71797355E-04  2.57569132E-04  2.22651943E-04  1.60268188E-04  1.21290141E-04  8.56666447E-05  5.99501145E-05  4.45314545E-05  3.86405845E-05  3.41728410E-05  3.42951134E-05  4.64268524E-05  6.30411232E-05  8.70592121E-05  1.23626000E-04  1.80689676E-04  2.70052376E-04  3.09009483E-04  4.05179104E-04  5.06383891E-04  5.11180027E-04  6.34301570E-04  6.53886178E-04  5.90268581E-04  5.79584506E-04  5.27261174E-04  4.33429086E-04  3.53078794E-04  3.41467123E-04  3.10718984E-04  3.26770911E-04  3.22694774E-04  3.98579170E-04  4.08624182E-04  4.44239442E-04  5.57466527E-04
      1.86690391E-04  2.64761620E-04  4.53417335E-04  6.72353606E-04       0.00104565       0.00115784       0.00121713  9.30693641E-04  5.49152086E-04  4.85919532E-04  3.75725358E-04  2.79598113E-04  2.64883362E-04  2.64403614E-04  2.95600999E-04  3.40780942E-04  3.17862170E-04  2.80039676E-04  2.38018300E-04  2.43922579E-04  2.38863562E-04  2.12039769E-04  2.21353985E-04  2.40738344E-04  2.98449828E-04  4.01827070E-04  6.50810660E-04  7.62602198E-04  7.55073852E-04  6.25637651E-04  4.70170286E-04  2.67426047E-04  1.64806945E-04  1.00516598E-04  7.81217605E-05  5.76722559E-05  4.53277935E-05  3.45159133E-05  2.70565906E-05  3.29884133E-05  5.14156309E-05  7.59251852E-05  1.02170954E-04  1.13759939E-04  1.09525601E-04  9.10269737E-05  9.10167510E-05  7.34767600E-05  7.76421512E-05  1.04875027E-04  1.18372569E-04  1.54532245E-04  2.14369778E-04  3.07918177E-04  4.29754960E-04  7.24405632E-04       0.00115143       0.00146321       0.00135645       0.00126209  9.96264163E-04  6.56828051E-04  4.05225815E-04  2.96860526E-04  2.58537650E-04  2.07506062E-04  1.48116844E-04  1.33242822E-04  1.26605475E-04  8.94994737E-05  6.84347833E-05  5.34195606E-05  4.54959663E-05  3.85274070E-05  3.22046471E-05  3.71810675E-05  4.83294025E-05  5.84052468E-05  8.55348117E-05  1.33267939E-04  2.01980889E-04  2.77732208E-04  4.33668611E-04  5.94787241E-04  7.42471137E-04  9.00308660E-04  9.17409314E-04  8.56540399E-04  7.99526402E-04  7.04858743E-04  4.89719096E-04  3.65525746E-04  3.62894032E-04  3.20158695E-04  3.16792488E-04  3.02031345E-04  3.48540576E-04  4.44061996E-04  4.62627359E-04  5.40452427E-04
      1.60434924E-04  2.29368452E-04  3.88346874E-04  6.31788338E-04  8.64651287E-04       0.00101040       0.00105151  8.40365712E-04  6.12811418E-04  5.00291528E-04  3.92298942E-04  3.37479520E-04  2.70193530E-04  2.61621259E-04  2.60203873E-04  2.81127344E-04  3.27033544E-04  3.24962719E-04  2.87429139E-04  2.89881747E-04  3.02904635E-04  2.79489730E-04  2.51140562E-04  2.52090773E-04  2.72574369E-04  3.90972622E-04  5.26827062E-04  6.41365477E-04  6.15331519E-04  5.22128365E-04  4.44885140E-04  2.74684950E-04  1.56146285E-04  9.29805174E-05  7.68596146E-05  7.31159598E-05  5.79743064E-05  4.83831209E-05  4.23327219E-05  5.01561262E-05  7.63289718E-05  1.09365246E-04  1.17548414E-04  1.08136723E-04  1.04181359E-04  8.62013185E-05  9.18329970E-05  7.66545054E-05  7.36131988E-05  9.81548292E-05  1.33838941E-04  1.84320787E-04  2.64077767E-04  3.84143845E-04  5.58985746E-04  7.29130930E-04  9.41569160E-04       0.00110286  9.85846389E-04  9.81034013E-04  8.88484705E-04  6.24402484E-04  4.41159034E-04  3.60903738E-04  2.40622365E-04  1.73185705E-04  1.29020904E-04  1.10957211E-04  1.17295494E-04  9.96798699E-05  7.80678456E-05  7.33380148E-05  5.91481949E-05  4.57425267E-05  3.13651581E-05  3.21067018E-05  3.33462704E-05  4.09507738E-05  6.26315814E-05  9.70008186E-05  1.47785919E-04  2.38292050E-04  3.77034448E-04  5.38992928E-04  8.15834559E-04       0.00118996       0.00121321       0.00117532  9.92976944E-04  7.84898177E-04  6.25602785E-04  4.64038370E-04  4.19036049E-04  3.57740297E-04  3.69492249E-04  3.74296709E-04  3.86133004E-04  4.37264622E-04  4.85505181E-04  5.29298442E-04
      1.65145553E-04  2.62307934E-04  4.08500317E-04  6.09411451E-04  7.44059915E-04  8.47727933E-04  9.05454857E-04  7.64180324E-04  6.16304169E-04  4.95620072E-04  3.75344680E-04  3.43494437E-04  3.09892610E-04  2.79215194E-04  2.33527840E-04  2.51312187E-04  3.31422751E-04  3.94515577E-04  3.86884436E-04  3.62332357E-04  3.50309361E-04  3.01771797E-04  2.91588280E-04  3.03335139E-04  3.22816748E-04  3.95533832E-04  4.65153309E-04  5.68274758E-04  4.60241950E-04  4.43111639E-04  3.91238224E-04  2.61605368E-04  1.71272914E-04  1.11337293E-04  7.87126337E-05  7.91776474E-05  6.49406502E-05  5.86673159E-05  6.15271856E-05  7.47484155E-05  1.12269641E-04  1.41523458E-04  1.39337601E-04  1.19921126E-04  1.20699289E-04  1.16990130E-04  1.07413034E-04  8.86732523E-05  9.48542947E-05  1.22051882E-04  1.66256810E-04  2.33870946E-04  3.76507989E-04  5.67171199E-04  6.87971071E-04  9.07585432E-04       0.00101269       0.00100499  9.34360782E-04  9.25641158E-04  8.60415166E-04  6.41964667E-04  4.73166816E-04  3.69496120E-04  2.85132148E-04  1.80788542E-04  1.25723091E-04  1.05793421E-04  1.13044975E-04  1.06061707E-04  9.28032896E-05  8.74110847E-05  7.25972350E-05  5.33306302E-05  4.10773027E-05  3.63994695E-05  3.38288919E-05  3.64765183E-05  5.03166775E-05  7.18464726E-05  1.22429818E-04  2.06541605E-04  3.49915557E-04  4.23019781E-04  6.11921307E-04  9.50449263E-04       0.00122900       0.00132254       0.00128019       0.00108176  8.61232111E-04  6.76550961E-04  5.73721831E-04  4.69467050E-04  4.68571001E-04  4.94127104E-04  4.44336067E-04  4.58699651E-04  5.01981063E-04  5.59586391E-04
      1.63250734E-04  2.78294669E-04  4.21876990E-04  5.83344663E-04  7.17162038E-04  9.31614777E-04  9.58930934E-04  8.09045392E-04  6.93854468E-04  5.07190183E-04  4.12033754E-04  3.75938020E-04  3.22847627E-04  2.70355929E-04  2.42488779E-04  3.05240537E-04  3.83538078E-04  4.51789558E-04  4.45507612E-04  4.48727573E-04  3.99357115E-04  3.51779541E-04  3.14795238E-04  3.20433202E-04  3.32178926E-04  3.75895121E-04  3.63441242E-04  3.90133384E-04  3.58602701E-04  3.14718200E-04  2.80025793E-04  2.79422908E-04  2.30177364E-04  1.64062192E-04  1.16346913E-04  9.54043644E-05  8.80457010E-05  8.81439846E-05  1.09219647E-04  1.17824515E-04  1.52895213E-04  1.89006547E-04  1.96884008E-04  1.67180013E-04  1.63384131E-04  1.55921472E-04  1.27093008E-04  1.11310277E-04  1.34284579E-04  1.76772519E-04  2.63661408E-04  3.79994861E-04  5.20658446E-04  6.58371369E-04  8.05351126E-04  9.34297626E-04  9.00593703E-04  9.52461327E-04  7.61420233E-04  7.65652803E-04  7.33527995E-04  5.82474167E-04  4.65154561E-04  3.64056992E-04  2.90293276E-04  1.80826362E-04  1.13065893E-04  9.84563449E-05  1.12852693E-04  1.16325522E-04  1.17695919E-04  1.18793068E-04  9.38055673E-05  6.30488867E-05  4.59997646E-05  4.31881817E-05  3.88068693E-05  3.76418539E-05  4.53238390E-05  6.87378779E-05  1.14510032E-04  2.06195007E-04  3.12307093E-04  4.23454330E-04  6.09400508E-04  8.47190502E-04       0.00100222       0.00127097       0.00143148       0.00139944       0.00123726       0.00124628  9.55749245E-04  7.46952719E-04  7.14580528E-04  7.04625505E-04  5.49895165E-04  5.32571808E-04  6.30625407E-04  6.44314568E-04
      1.89046317E-04  2.63471826E-04  3.65911634E-04  5.04746917E-04  6.32731535E-04  7.81596988E-04  9.06583038E-04  8.12908344E-04  7.79359776E-04  6.07481285E-04  4.63277625E-04  4.48286824E-04  4.01722791E-04  3.14221921E-04  2.94382247E-04  3.49201611E-04  4.63918579E-04  5.76401944E-04  5.57854655E-04  4.84831980E-04  4.40771575E-04  3.68061999E-04  3.28163354E-04  2.83715577E-04  3.03057226E-04  3.06812115E-04  2.70336837E-04  2.78680760E-04  2.75090191E-04  2.53434060E-04  2.29417201E-04  2.81128596E-04  2.51424848E-04  2.22761228E-04  1.63716250E-04  1.20891913E-04  1.12899557E-04  1.24209575E-04  1.61141754E-04  2.02765616E-04  2.35172643E-04  2.47045158E-04  2.70880584E-04  2.22167218E-04  2.07880512E-04  2.02109732E-04  1.76180911E-04  1.60413983E-04  1.75772846E-04  2.50294775E-04  4.02207981E-04  5.91505843E-04  7.75875465E-04  9.70337831E-04       0.00103474  9.28572263E-04  8.46414478E-04  9.55846335E-04  7.02201738E-04  6.14214339E-04  5.98652463E-04  4.61315620E-04  3.66048393E-04  3.51503259E-04  3.07885435E-04  2.28558230E-04  1.52198627E-04  1.31829263E-04  1.37899799E-04  1.50858687E-04  1.58121140E-04  1.54998081E-04  1.16387411E-04  7.82799762E-05  5.65303671E-05  5.12247352E-05  4.62715107E-05  4.19293465E-05  4.54542278E-05  6.50054426E-05  1.02976905E-04  1.74879082E-04  2.98296451E-04  4.60122916E-04  5.56917279E-04  7.05467828E-04  8.85256857E-04       0.00126272       0.00160884       0.00181577       0.00184441       0.00164875       0.00141128       0.00115996       0.00102768  9.72474809E-04  7.43790704E-04  7.38846895E-04  8.04786396E-04  6.69178087E-04
      1.89390863E-04  2.41085116E-04  3.03428940E-04  5.21839713E-04  6.85230712E-04  8.69038398E-04  9.04874352E-04  9.13282740E-04  9.14511562E-04  7.88940990E-04  6.10736897E-04  5.61096473E-04  5.42198657E-04  4.58149647E-04  5.18704241E-04  5.40339097E-04  5.81078930E-04  6.07707247E-04  6.88360597E-04  5.64918271E-04  4.00978461E-04  3.67095781E-04  2.97454069E-04  2.46342592E-04  2.34653548E-04  2.40985246E-04  2.13414445E-04  1.84250268E-04  2.12756247E-04  2.22280563E-04  2.35212938E-04  2.61351437E-04  2.67536932E-04  2.40915586E-04  1.80462608E-04  1.45016122E-04  1.41412384E-04  1.61183416E-04  2.14057000E-04  3.01061169E-04  3.48706992E-04  3.11034615E-04  2.82803056E-04  2.49252218E-04  2.29917307E-04  2.27737881E-04  2.32000151E-04  2.12438681E-04  2.66079442E-04  3.51313589E-04  5.29491866E-04  8.16331187E-04       0.00105635       0.00122959       0.00133150       0.00126781       0.00106674       0.00102915  6.96777483E-04  5.26234158E-04  4.21082892E-04  3.43077903E-04  3.08892690E-04  3.21844243E-04  3.31529009E-04  2.65238981E-04  2.00511611E-04  1.84522069E-04  1.73797118E-04  1.96509573E-04  2.15491469E-04  2.00488954E-04  1.59031420E-04  1.15231916E-04  8.36106337E-05  6.95514609E-05  5.79531479E-05  5.18167253E-05  5.09536876E-05  6.05400892E-05  1.04445775E-04  1.79024573E-04  3.00125394E-04  4.75030392E-04  5.80580789E-04  7.21601828E-04  9.97975934E-04       0.00145475       0.00191434       0.00214975       0.00212048       0.00198518       0.00174794       0.00161105       0.00140532       0.00123067       0.00112444  9.86964093E-04       0.00100898  9.09221766E-04
      1.66693746E-04  2.08218218E-04  2.59158143E-04  4.59369330E-04  6.12563104E-04  8.19946930E-04  9.52484086E-04       0.00113297       0.00107946  9.96697112E-04  8.84991372E-04  8.43503163E-04  7.65784527E-04  5.76784776E-04  8.09591904E-04  9.01177234E-04  9.21862607E-04  8.74181162E-04  7.62939861E-04  5.91322896E-04  4.25902399E-04  3.20266670E-04  2.75816099E-04  2.24862844E-04  1.72734304E-04  1.75901325E-04  1.73025866E-04  1.59236297E-04  1.55690039E-04  1.74964705E-04  1.99379429E-04  2.36589825E-04  2.54927581E-04  2.22896459E-04  1.92701351E-04  1.53085522E-04  1.57473070E-04  1.85855257E-04  2.71563767E-04  3.56403529E-04  3.98018892E-04  3.77214979E-04  3.26406414E-04  2.82437046E-04  2.45012867E-04  2.39269357E-04  2.70772929E-04  2.63414258E-04  3.41097912E-04  4.23803547E-04  6.39930833E-04  9.04652348E-04       0.00116937       0.00127560       0.00149618       0.00144573       0.00114767       0.00102673  6.67216606E-04  4.21484845E-04  3.15634563E-04  2.46533571E-04  2.55518768E-04  3.19596060E-04  3.35781719E-04  2.79539672E-04  2.56217638E-04  2.62523361E-04  2.51150050E-04  2.57629581E-04  2.98045023E-04  3.46746645E-04  2.56894884E-04  1.58374838E-04  1.09433138E-04  9.89308246E-05  7.91505954E-05  6.88004366E-05  6.58803110E-05  8.48304117E-05  1.49933257E-04  2.23083960E-04  3.71924194E-04  4.76563349E-04  5.84753812E-04  7.84275297E-04       0.00111069       0.00155838       0.00228869       0.00246801       0.00230864       0.00219531       0.00219971       0.00215978       0.00199909       0.00196896       0.00168284       0.00140523       0.00142743       0.00130961
      1.57589006E-04  1.81928888E-04  2.51027406E-04  3.78594501E-04  5.80223801E-04  7.65898149E-04  9.79457516E-04       0.00129335       0.00128718       0.00129852       0.00126933       0.00117572  9.71981674E-04  9.78458324E-04       0.00105881       0.00119177       0.00104987  8.93796328E-04  8.34694772E-04  6.03012682E-04  4.08852589E-04  2.92101235E-04  2.39861314E-04  1.71902153E-04  1.37509327E-04  1.29346372E-04  1.28900763E-04  1.18142896E-04  1.02479811E-04  1.06250081E-04  1.48651379E-04  1.64305049E-04  1.86455378E-04  1.82097487E-04  1.61174554E-04  1.69456485E-04  1.78680333E-04  2.22179806E-04  3.33566219E-04  3.91832553E-04  4.14870388E-04  3.67660366E-04  3.72286333E-04  3.37423640E-04  3.22983018E-04  2.95815407E-04  2.84559850E-04  3.17039900E-04  4.11112473E-04  5.01227623E-04  7.59925926E-04       0.00105067       0.00110360       0.00119416       0.00129281       0.00116914  9.82395024E-04  9.39963909E-04  5.78237872E-04  3.26281355E-04  2.25852709E-04  2.17153618E-04  2.33010185E-04  2.65913841E-04  3.04991670E-04  3.26952577E-04  3.26572161E-04  3.35810357E-04  3.45745008E-04  3.55891098E-04  3.95456911E-04  5.11558377E-04  3.76366952E-04  2.47605873E-04  1.85275829E-04  1.51168060E-04  1.15885850E-04  9.51703769E-05  9.77177697E-05  1.25660998E-04  1.94495908E-04  2.57439009E-04  3.77661083E-04  5.53435297E-04  6.88026776E-04  8.86284979E-04       0.00133925       0.00169276       0.00199089       0.00233613       0.00252239       0.00250279       0.00260252       0.00245044       0.00233618       0.00261048       0.00238330       0.00228880       0.00221259       0.00176454
      1.87970072E-04  2.11208215E-04  2.69875920E-04  3.56188801E-04  5.22818009E-04  7.42584642E-04       0.00107191       0.00140378       0.00144545       0.00139998       0.00144766       0.00142299       0.00139079       0.00138382       0.00136487       0.00143326       0.00124553  9.51472786E-04  8.89055082E-04  6.46934554E-04  4.17829870E-04  2.56855681E-04  1.74478540E-04  1.15398288E-04  1.00630765E-04  8.96229831E-05  9.28698064E-05  7.71001651E-05  6.83340550E-05  7.48598322E-05  9.45292486E-05  1.32559697E-04  1.62945769E-04  1.59948599E-04  1.63286706E-04  1.74770918E-04  1.92857522E-04  2.50620884E-04  3.52578965E-04  4.09830711E-04  4.51473170E-04  3.96019284E-04  3.55075317E-04  3.75016010E-04  3.81300575E-04  3.65930115E-04  3.46428191E-04  3.42816231E-04  3.84636340E-04  4.44896141E-04  6.27889531E-04  8.46786716E-04  9.22646490E-04  9.20414517E-04  8.71473283E-04  7.78278860E-04  7.41017982E-04  6.41481543E-04  3.86378495E-04  2.51617050E-04  2.16893721E-04  2.21836919E-04  2.40194815E-04  2.49767210E-04  3.14543693E-04  4.06402047E-04  4.87239944E-04  4.54635476E-04  4.95234213E-04  4.94884502E-04  5.79406100E-04  6.26684283E-04  5.41443878E-04  3.92476504E-04  3.21828935E-04  5.90529394E-04  2.08845187E-04  1.60608251E-04  1.35986847E-04  1.85999059E-04  2.61811510E-04  2.72513309E-04  3.30670620E-04  4.61929943E-04  5.87378920E-04  7.64636556E-04       0.00108888       0.00133267       0.00160577       0.00185985       0.00222410       0.00228031       0.00238030       0.00252747       0.00250961       0.00269541       0.00303521       0.00299000       0.00314865       0.00234351
      1.98812733E-04  2.39630317E-04  2.92454526E-04  3.41472740E-04  4.72166488E-04  7.74422660E-04       0.00118383       0.00158354       0.00149297       0.00153056       0.00151451       0.00153180       0.00170997       0.00169594       0.00161693       0.00142264       0.00122694  9.69298242E-04  9.18728299E-04  6.98112184E-04  4.57952934E-04  2.64602975E-04  1.60564028E-04  1.01817277E-04  8.01276328E-05  7.50276376E-05  6.41170845E-05  5.66791459E-05  5.70273805E-05  6.59478537E-05  8.32506194E-05  1.15451068E-04  1.50413340E-04  1.56233858E-04  1.82010554E-04  2.02086245E-04  2.30886464E-04  2.90189084E-04  3.63709056E-04  3.86124739E-04  4.01584344E-04  3.78210825E-04  3.77979159E-04  3.98905278E-04  3.88558750E-04  3.75491742E-04  3.49373702E-04  3.42745217E-04  3.20298976E-04  3.25562141E-04  3.95674550E-04  5.08806203E-04  6.61997823E-04  6.26750989E-04  5.61184366E-04  4.48470673E-04  3.52625386E-04  2.87744828E-04  2.10652550E-04  1.62674114E-04  1.65530088E-04  2.04083219E-04  2.29629339E-04  2.70619115E-04  3.89053981E-04  5.14665211E-04  5.84929017E-04  5.84623776E-04  6.19409198E-04  5.91252756E-04  5.90176554E-04  7.13665446E-04  7.30823725E-04  6.29798975E-04  5.90529394E-04  5.90529394E-04  3.21742904E-04  2.35511383E-04  2.02132025E-04  2.70155229E-04  3.19979736E-04  3.54651158E-04  4.40195436E-04  4.65316960E-04  6.08934381E-04  7.11106521E-04  8.71631084E-04  9.10716306E-04       0.00118573       0.00140673       0.00171213       0.00212277       0.00227186       0.00229433       0.00280627       0.00346941       0.00369538       0.00407496       0.00345059       0.00260174
      1.99596674E-04  2.23829411E-04  2.66816467E-04  3.32500727E-04  4.33280366E-04  6.88096741E-04  9.80482437E-04       0.00124391       0.00157600       0.00177148       0.00170549       0.00174915       0.00160720       0.00171783       0.00173797       0.00142840       0.00123888       0.00120449       0.00114804  7.74420798E-04  4.60734329E-04  2.80145003E-04  1.57922274E-04  9.82491329E-05  6.54242685E-05  5.87458235E-05  5.39590837E-05  5.27875127E-05  5.16710606E-05  6.19893690E-05  7.96252716E-05  1.31253371E-04  1.54164081E-04  1.94437336E-04  2.27086581E-04  2.49515491E-04  2.52214493E-04  3.03007837E-04  3.19565705E-04  3.55016004E-04  3.48619884E-04  3.49717244E-04  4.10231034E-04  4.25413687E-04  3.83874314E-04  3.22170468E-04  2.63621070E-04  2.24092466E-04  2.17829132E-04  2.52402184E-04  2.67502823E-04  2.75739381E-04  3.54738208E-04  3.65590939E-04  3.08729039E-04  2.42142240E-04  1.75347857E-04  1.48058491E-04  1.37194365E-04  1.18522294E-04  1.26691695E-04  1.60008000E-04  2.15279157E-04  2.70984106E-04  4.00314893E-04  5.36590291E-04  5.95425838E-04  6.60083839E-04  7.17812858E-04  7.55304005E-04  8.50481214E-04  8.10732716E-04  9.85755934E-04  5.90529394E-04  5.90529394E-04  5.90529394E-04  5.90529394E-04  4.00973833E-04  4.02970065E-04  4.27208288E-04  4.60908050E-04  4.46006452E-04  5.08265803E-04  6.31375471E-04  6.42827828E-04  7.18933356E-04  6.77386415E-04  7.60626397E-04  7.83957192E-04  8.67218594E-04       0.00117901       0.00160935       0.00188346       0.00210262       0.00278098       0.00378025       0.00366896       0.00330021       0.00297935       0.00235187
      1.75408000E-04  2.03617252E-04  2.25811906E-04  2.99796462E-04  3.89602326E-04  6.38177269E-04  9.15528159E-04       0.00110707       0.00146665       0.00163475       0.00182993       0.00163216       0.00148123       0.00146736       0.00149063       0.00125666       0.00122423       0.00118963       0.00103524  6.57610071E-04  3.30910814E-04  1.98926573E-04  1.42829173E-04  9.87137319E-05  6.12604272E-05  5.01534014E-05  5.19684691E-05  5.40200090E-05  5.20705144E-05  6.10969364E-05  8.06675744E-05  1.42731034E-04  1.93786269E-04  2.78370571E-04  2.90631549E-04  3.00043903E-04  3.07932205E-04  3.16771038E-04  3.20742518E-04  3.41632636E-04  3.70275549E-04  4.04258957E-04  4.05811181E-04  4.03107144E-04  3.35324556E-04  2.73677375E-04  2.03029485E-04  1.60369571E-04  1.66185549E-04  1.94497698E-04  1.59159172E-04  1.47054467E-04  1.74828310E-04  1.75208435E-04  1.55241636E-04  1.35500930E-04  1.08897206E-04  1.05168598E-04  9.98353789E-05  9.97495881E-05  1.16496652E-04  1.36727554E-04  1.78751507E-04  2.55862949E-04  3.75758420E-04  5.53430058E-04  6.98842690E-04  8.00854992E-04  8.62064073E-04  9.18022124E-04       0.00103009       0.00120344  5.90529394E-04  5.90529394E-04  5.90529394E-04  5.90529394E-04  5.90529394E-04  7.27407518E-04  6.76290132E-04  7.42611883E-04  6.97666605E-04  5.97528531E-04  6.93214824E-04  7.38249510E-04  6.62613951E-04  6.09528797E-04  5.01490023E-04  5.49535849E-04  5.00392052E-04  5.06873592E-04  7.33273453E-04       0.00108220       0.00137333       0.00195626       0.00217953       0.00260862       0.00266270       0.00213994       0.00176960       0.00139091
      1.42593635E-04  1.55131565E-04  1.83893586E-04  2.60567846E-04  3.68299981E-04  5.33526181E-04  7.60590250E-04  8.99908482E-04       0.00115983       0.00153929       0.00146390       0.00115322       0.00107470  9.60937061E-04  8.91026924E-04  8.07093922E-04  9.06955684E-04  8.54155747E-04  7.49456987E-04  4.90207225E-04  2.52747908E-04  1.88902573E-04  1.44167978E-04  1.00835037E-04  7.23604244E-05  6.12656950E-05  5.85780472E-05  6.00136700E-05  6.79545628E-05  8.96795900E-05  1.11285168E-04  1.80190080E-04  2.68515956E-04  3.43117077E-04  3.67190805E-04  3.32151656E-04  3.42011626E-04  3.40906816E-04  3.33263539E-04  3.65487940E-04  4.44299658E-04  4.83101117E-04  4.98423702E-04  4.33129055E-04  3.16185760E-04  2.23513285E-04  1.98325171E-04  1.56571332E-04  1.39582742E-04  1.10808338E-04  8.43047019E-05  7.62352938E-05  8.65764232E-05  8.62454472E-05  8.64935791E-05  9.19037993E-05  8.62224697E-05  8.49037024E-05  8.52947123E-05  8.66591872E-05  1.00772435E-04  1.46756385E-04  1.84150224E-04  2.82327353E-04  3.91650858E-04  6.55564712E-04  7.72865838E-04  8.22630827E-04  8.98906903E-04       0.00117248       0.00155296       0.00167846  5.90529394E-04  5.90529394E-04  5.90529394E-04  5.90529394E-04  5.90529394E-04       0.00109734       0.00121391       0.00134730       0.00125653  9.43876337E-04  8.19626905E-04  7.64612865E-04  6.01462845E-04  5.05924108E-04  3.91859241E-04  3.56251257E-04  3.30150593E-04  3.55836644E-04  5.10736892E-04  6.86766813E-04  8.19114677E-04       0.00116643       0.00144882       0.00175968       0.00171089       0.00127818       0.00103935  7.26379512E-04
      7.52110791E-05  9.37054283E-05  1.24201630E-04  1.75595051E-04  2.88464478E-04  3.88895773E-04  5.37358690E-04  6.88108150E-04  9.34946584E-04  9.55452502E-04  8.79903091E-04  7.69738690E-04  6.51407870E-04  6.66423060E-04  5.82320499E-04  4.79558541E-04  5.06951532E-04  5.46912779E-04  4.89951228E-04  3.23429878E-04  1.93015090E-04  1.49638858E-04  1.44976657E-04  1.06458116E-04  9.48762172E-05  8.25211391E-05  7.06952706E-05  7.69123217E-05  8.65493203E-05  1.12161302E-04  1.48506442E-04  2.28274424E-04  3.10409989E-04  4.00557386E-04  4.21206205E-04  4.07448155E-04  3.42865562E-04  3.19873216E-04  3.69879359E-04  4.15188813E-04  4.85946483E-04  5.68324351E-04  5.24790958E-04  4.27855295E-04  2.75836326E-04  2.10440165E-04  1.68143131E-04  1.43893427E-04  1.11982241E-04  7.41780095E-05  4.85142882E-05  4.21185978E-05  4.52128406E-05  5.32730737E-05  6.43773601E-05  7.94467196E-05  7.08832085E-05  7.24135825E-05  7.63873904E-05  8.59652791E-05  9.91552515E-05  1.38393865E-04  2.10557715E-04  3.41976760E-04  5.08486351E-04  6.72487076E-04  8.36203108E-04  8.71709140E-04       0.00111472       0.00163042       0.00217600       0.00228895  5.90529394E-04  5.90529394E-04  5.90529394E-04  5.90529394E-04  5.90529394E-04       0.00152990       0.00181873       0.00211772       0.00196053       0.00135005       0.00102558  7.79199880E-04  4.67256992E-04  3.70720547E-04  2.56530271E-04  2.23407347E-04  1.94492619E-04  2.03588090E-04  3.23835819E-04  4.49037208E-04  5.26981661E-04  7.05342100E-04  8.50458629E-04       0.00104816       0.00104374  8.15559411E-04  6.93308597E-04  4.44456935E-04