# File generated by Flopy version 3.9.1 on 06/24/2025 at 08:52:33.
BEGIN options
  SAVE_FLOWS
END options

BEGIN dimensions
  MAXBOUND  1
END dimensions

BEGIN period  1
  3 26 41 -1.50000000E-03
END period  1

