# File generated by Flopy version 3.9.2 on 02/25/2025 at 15:36:06.
BEGIN options
END options

BEGIN timing
  TDIS6  test.tdis
END timing

BEGIN models
  prt6  test.nam  test
END models

BEGIN exchanges
END exchanges

BEGIN solutiongroup  1
  ems6  test.ems  test
END solutiongroup  1

