# File generated by Flopy version 3.9.5 on 11/11/2025 at 11:58:36.
BEGIN options
END options

BEGIN griddata
  porosity
    CONSTANT       0.20000000
END griddata

