# File generated by Flopy version 3.9.3 on 07/23/2025 at 15:50:11.
BEGIN options
END options

BEGIN griddata
  porosity
    CONSTANT       0.20000000
END griddata

