# File generated by Flopy version 3.9.5 on 12/11/2025 at 15:15:46.
BEGIN options
  BUDGET  FILEOUT  test.bud
  TRACK  FILEOUT  test.trk
  TRACKCSV  FILEOUT  test.trk.csv
END options

BEGIN period  1
  SAVE  BUDGET  ALL
END period  1

