# File generated by Flopy version 3.9.5 on 11/03/2025 at 10:08:54.
BEGIN options
END options

BEGIN griddata
  porosity
    CONSTANT       0.20000000
END griddata

