# File generated by Flopy version 3.9.5 on 12/11/2025 at 15:15:46.
BEGIN options
  TIME_UNITS  days
END options

BEGIN dimensions
  NPER  1
END dimensions

BEGIN perioddata
       1.00000000  1       1.00000000
END perioddata

