# File generated by Flopy version 3.9.3 on 10/06/2025 at 13:43:17.
BEGIN options
  EXIT_SOLVE_TOLERANCE  1.00000000E-05
  EXTEND_TRACKING
  DRAPE
END options

BEGIN dimensions
  NRELEASEPTS  11
END dimensions

BEGIN packagedata
  1  4 6 14     145.87242052      44.01542401      -7.99627716
  2  3 4 18     179.23569428      71.94804754      -7.15869212
  3  6 8 10     100.01258123      21.46748622     -10.43287911
  4  4 2 13     133.25658299      92.20233082      -8.53838692
  5  3 10 12     116.14314799       2.87569729      -7.61805424
  6  3 4 11     110.15724542      70.39908857      -7.52696668
  7  7 6 12     120.48862325      43.81700425     -11.57477894
  8  7 5 14     138.01167997      58.66243199     -11.80472608
  9  7 9 14     143.64442217      14.74062855     -11.15084790
  10  3 9 16     159.26984074      20.80065635      -7.60928748
  11  5 1 17     170.70000000      99.75000000      -9.00000000
END packagedata

BEGIN period  1
  FIRST
END period  1

