# File generated by Flopy version 3.9.3 on 10/06/2025 at 13:43:17.
BEGIN options
END options

BEGIN griddata
  porosity
    CONSTANT       0.20000000
END griddata

