# File generated by Flopy version 3.9.2 on 02/25/2025 at 15:36:06.
BEGIN options
END options

BEGIN packages
  DIS6  test.dis  dis
  MIP6  test.mip  mip
  PRP6  test.prp  prp
  OC6  test.oc  oc
  FMI6  test.fmi  fmi
END packages

