# File generated by Flopy version 3.9.3 on 07/23/2025 at 15:50:11.
BEGIN options
  BUDGET  FILEOUT  test.bud
  TRACK  FILEOUT  test.trk
  TRACKCSV  FILEOUT  test.trk.csv
END options

BEGIN period  1
  SAVE  BUDGET  ALL
END period  1

