# File generated by Flopy version 3.9.1 on 06/09/2025 at 12:37:19.
BEGIN options
END options

BEGIN packages
  MIP6  test.mip  mip
  DIS6  test.dis  dis
  PRP6  test.prp  prp
  OC6  test.oc  oc
  FMI6  test.fmi  fmi
END packages

