# File generated by Flopy version 3.9.3 on 09/16/2025 at 10:10:59.
BEGIN options
END options

BEGIN griddata
  porosity
    CONSTANT       0.20000000
END griddata

