# File generated by Flopy version 3.9.5 on 11/03/2025 at 10:08:54.
BEGIN options
  BUDGET  FILEOUT  test.bud
  TRACK  FILEOUT  test.trk
  TRACKCSV  FILEOUT  test.trk.csv
END options

BEGIN period  1
  SAVE  BUDGET  ALL
END period  1

