# File generated by Flopy version 3.9.3 on 10/06/2025 at 13:43:17.
BEGIN options
END options

BEGIN packages
  MIP6  test.mip  mip
  DIS6  test.dis  dis
  PRP6  test.prp  prp
  OC6  test.oc  oc
  FMI6  test.fmi  fmi
END packages

