# File generated by Flopy version 3.9.5 on 12/11/2025 at 15:15:46.
BEGIN options
END options

BEGIN griddata
  porosity
    CONSTANT       0.20000000
END griddata

