# File generated by Flopy version 3.8.2 on 01/28/2025 at 09:59:19.
BEGIN options
  BUDGET  FILEOUT  model.cbc
  HEAD  FILEOUT  model.hds
END options

BEGIN period  1
  SAVE  HEAD  LAST
  SAVE  BUDGET  LAST
  PRINT  BUDGET  ALL
END period  1

