# File generated by Flopy version 3.8.2 on 01/28/2025 at 09:59:19.
BEGIN options
  SAVE_FLOWS
  SAVE_SPECIFIC_DISCHARGE
  SAVE_SATURATION
END options

BEGIN griddata
  icelltype
    CONSTANT  0
  k  LAYERED
    INTERNAL  FACTOR  1.0
      3.13132407E-06  3.47199682E-06  3.39193843E-06  3.25104136E-06  2.11182263E-06  2.23693929E-06  2.20905400E-06  2.45555189E-06  1.96355745E-06  1.33491164E-06  1.00282464E-06  6.52482693E-07  5.79798455E-07  6.02167685E-07  5.08229015E-07  4.26161585E-07  4.70063288E-07  4.57251164E-07  2.78710440E-07  2.66729571E-07  3.24116529E-07  3.61118396E-07  2.28145295E-07  1.77446252E-07  1.21938038E-07  1.35730682E-07  1.84694609E-07  2.03002467E-07  1.57955924E-07  3.25025617E-07  6.46081753E-07  9.43172773E-07  1.46385727E-06  2.13402642E-06  3.33972149E-06  4.51693961E-06  4.52632263E-06  4.20721155E-06  3.50788908E-06  5.74230336E-07  2.44920542E-07  1.25154217E-07  2.15726171E-07  1.79664882E-07  1.90463125E-07  5.24288293E-07  3.62315803E-07  7.15010501E-07  2.43316911E-07  2.75285952E-07  3.22382422E-07  1.06239978E-06  1.06239978E-06  1.06239978E-06  1.06239978E-06  1.06239978E-06  1.06239978E-06  1.06239978E-06  1.88924599E-06  2.82024827E-06  3.09719270E-06  2.64412063E-06  1.84736388E-06  1.37434075E-06  1.25938966E-06  9.70203103E-07  9.69699375E-07  7.81774796E-07  7.68002485E-07  8.15357116E-07  9.39046816E-07  1.08622945E-06  1.06239978E-06  1.06239978E-06  1.06239978E-06  1.06239978E-06  1.06239978E-06  1.06239978E-06  1.06239978E-06  1.06239978E-06  1.06239978E-06  1.06239978E-06  1.06239978E-06  1.06239978E-06  1.06239978E-06  1.31296092E-06  9.46380179E-07  7.97748432E-07  6.87938613E-07  6.44774289E-07  2.25747233E-06  2.35495479E-06  6.05392145E-06  8.16676854E-06  8.25585155E-07  8.69566742E-07  8.23784177E-07  8.30553839E-07  8.99998432E-07  1.01224746E-06  9.82692887E-07  8.00230189E-07  6.95595369E-07  6.93847090E-07  6.30189813E-07  6.97176566E-07  6.26346880E-07  6.50187815E-07  6.90289424E-07  7.82983436E-07  9.69569491E-07  1.25158477E-06  1.21555600E-06  9.65470096E-07  8.65107133E-07  7.88192312E-07  6.78875987E-07  5.42635294E-07  4.13401557E-07  7.78847289E-07  6.47713234E-07  8.94702710E-07  2.27369085E-07  3.33781526E-07  6.42400714E-07  1.06239978E-06  1.06239978E-06  1.06239978E-06  1.06239978E-06  1.06239978E-06  1.06239978E-06  1.06239978E-06  1.06239978E-06  1.06239978E-06  1.06239978E-06  1.06239978E-06  1.06239978E-06  1.06239978E-06  1.06239978E-06  1.06239978E-06  1.06239978E-06  1.06239978E-06  1.06239978E-06  3.85658246E-09  4.01211643E-09  1.83945214E-09  6.16493407E-10  2.35252038E-06  2.30739521E-08  8.50440840E-08  6.44364524E-08  1.17138162E-08  1.65975011E-07  4.99871916E-08  1.37056297E-07  1.36400565E-07  1.78958882E-07  2.27954499E-07  7.91431226E-08  1.06611696E-07  3.42854613E-08  9.26293709E-08  5.81748433E-07  6.17402455E-07  6.50774888E-07  6.54774168E-07  6.89934056E-07  8.31106643E-07
      2.99347274E-06  3.10620374E-06  3.04254011E-06  2.88980698E-06  2.69839852E-06  2.54996206E-06  2.64532571E-06  2.77533255E-06  2.16803717E-06  1.75923613E-06  1.12433984E-06  7.19865971E-07  7.16432857E-07  6.76128881E-07  5.85508632E-07  5.17606532E-07  5.27061583E-07  5.45693135E-07  5.52649473E-07  6.86370077E-07  8.14222757E-07  4.67173733E-07  3.49373643E-07  3.12633941E-07  2.68999453E-07  1.48580326E-07  2.63107720E-07  2.76490942E-07  3.24956749E-07  3.74800024E-07  1.09259643E-06  1.48804479E-06  2.13944578E-06  3.18948294E-06  5.22823595E-06  6.77230700E-06  6.20532006E-06  5.06383673E-06  3.95161457E-06  4.88949291E-07  3.98188830E-07  2.07809130E-07  2.87996878E-07  2.22983292E-07  1.45985266E-07  2.56146129E-07  2.32258217E-07  7.15461262E-07  7.06697618E-07  2.80371509E-07  3.04601965E-07  1.06239978E-06  1.06239978E-06  1.06239978E-06  1.06239978E-06  1.06239978E-06  1.06239978E-06  1.06239978E-06  2.57788739E-06  3.45264352E-06  3.97667162E-06  3.36706301E-06  2.25726414E-06  1.74908424E-06  1.51846098E-06  1.18018594E-06  1.03449422E-06  7.98021758E-07  8.01312501E-07  8.44975506E-07  9.71150566E-07  1.00063262E-06  1.06239978E-06  1.06239978E-06  1.06239978E-06  1.06239978E-06  1.06239978E-06  1.06239978E-06  1.06239978E-06  1.06239978E-06  1.06239978E-06  1.06239978E-06  1.06239978E-06  1.06239978E-06  1.06239978E-06  1.75635852E-06  1.09741151E-06  8.78446052E-07  7.48881347E-07  2.22961994E-06  8.17657510E-06  9.95701973E-06  1.74865412E-05  6.59740478E-06  8.82630329E-06  5.92063045E-07  5.31953255E-07  5.34992604E-07  6.16948441E-07  6.58226118E-07  1.06239978E-06  5.99656579E-07  5.17816849E-07  5.91302962E-07  6.29563934E-07  6.53914193E-07  6.03734674E-07  5.54623833E-07  6.03027800E-07  6.62116325E-07  7.14895107E-07  8.05244298E-07  1.06239978E-06  1.06239978E-06  7.02016520E-07  6.56978468E-07  5.66473437E-07  4.37868389E-07  3.18060395E-07  2.13562968E-07  6.10599032E-07  2.18628802E-07  2.93327236E-07  4.83970338E-07  9.86229578E-07  1.06239978E-06  1.06239978E-06  1.06239978E-06  1.06239978E-06  1.06239978E-06  1.06239978E-06  1.06239978E-06  1.06239978E-06  1.06239978E-06  1.06239978E-06  1.06239978E-06  1.06239978E-06  1.06239978E-06  1.06239978E-06  1.06239978E-06  1.06239978E-06  1.06239978E-06  4.25063886E-09  9.91248269E-09  4.09000557E-09  1.78381743E-09  6.46375499E-10  2.58037369E-08  1.96907352E-08  6.03991261E-08  2.44717597E-08  1.68235752E-08  4.41725114E-08  1.06128420E-08  3.02001154E-08  1.07507988E-07  1.30045750E-07  1.75991231E-07  2.12007471E-08  2.94990549E-08  3.05978612E-08  9.87691410E-08  5.41272052E-07  5.49399413E-07  1.06239978E-06  1.06239978E-06  1.06239978E-06  1.06239978E-06
      2.61627914E-06  2.55965076E-06  2.42853311E-06  2.25070103E-06  2.36145889E-06  2.27465717E-06  2.18542882E-06  2.47586423E-06  1.97917190E-06  1.24309101E-06  8.71137765E-07  7.89820081E-07  8.20439884E-07  5.81030937E-07  3.90523478E-07  5.57938490E-07  5.79680697E-07  6.02625378E-07  6.94388189E-07  8.57783608E-07  9.37856726E-07  1.08855997E-06  9.51304705E-07  7.59868180E-07  4.66838905E-07  3.57781168E-07  3.20177027E-07  4.21166233E-07  9.22912164E-07  1.28750334E-06  1.70708061E-06  2.22144873E-06  3.15678272E-06  4.80764036E-06  7.08665770E-06  9.29895902E-06  7.50502090E-06  5.50433093E-06  4.24790020E-06  3.32758789E-06  2.84661996E-06  2.20690368E-06  2.30547820E-07  2.09558267E-07  1.36216482E-07  1.47698112E-07  2.66419615E-07  2.01622597E-07  8.94742005E-07  2.75423209E-07  3.48896007E-07  1.06239978E-06  1.06239978E-06  1.06239978E-06  1.06239978E-06  1.06239978E-06  1.06239978E-06  1.06239978E-06  1.06239978E-06  4.62225151E-06  5.95453027E-06  4.37166560E-06  2.90335832E-06  2.01657798E-06  1.88193577E-06  1.55086733E-06  1.23972301E-06  1.01144201E-06  9.68203576E-07  9.81065013E-07  1.18704760E-06  1.06239978E-06  1.06239978E-06  1.06239978E-06  1.06239978E-06  1.06239978E-06  1.06239978E-06  1.06239978E-06  1.06239978E-06  1.06239978E-06  1.06239978E-06  1.06239978E-06  1.06239978E-06  1.06239978E-06  1.06239978E-06  1.06239978E-06  1.53324559E-06  9.86660643E-07  7.70387475E-07  4.59743545E-06  9.17071712E-06  1.01491500E-05  1.72654668E-05  2.29555407E-05  7.10043540E-06  2.83884817E-06  3.27694081E-06  3.61551626E-06  4.09075109E-07  4.05995726E-07  1.06239978E-06  4.35896912E-07  5.25499699E-07  5.62932514E-07  6.42410589E-07  6.44579636E-07  4.96221812E-07  4.65469793E-07  5.09463165E-07  6.22832985E-07  6.88153160E-07  1.06239978E-06  1.06239978E-06  1.06239978E-06  1.06239978E-06  4.40205817E-07  4.09905976E-07  3.57340293E-07  2.64410031E-07  1.86273527E-07  1.84422670E-07  2.39716429E-07  3.38941808E-07  5.78976558E-07  1.19882123E-06  1.06239978E-06  1.06239978E-06  1.06239978E-06  1.06239978E-06  1.06239978E-06  1.06239978E-06  1.06239978E-06  1.06239978E-06  1.06239978E-06  1.06239978E-06  1.06239978E-06  1.06239978E-06  1.06239978E-06  1.06239978E-06  1.06239978E-06  9.68190820E-10  1.21355304E-09  1.67209106E-09  3.23927975E-09  2.43445712E-09  1.75281575E-09  1.16148830E-09  3.11354494E-08  8.24397643E-09  7.33050277E-08  3.40205353E-08  7.39435503E-08  1.69529091E-08  3.91916054E-08  3.68049344E-08  3.54192724E-08  4.07232825E-08  4.91357048E-08  6.46884550E-08  8.84478380E-08  3.99583294E-07  4.85523922E-07  6.20181227E-07  6.21808746E-07  1.06239978E-06  1.06239978E-06  1.06239978E-06  1.06239978E-06
      2.11173684E-06  2.07591118E-06  2.01519906E-06  2.01473225E-06  1.99114015E-06  2.05207127E-06  1.85022807E-06  1.58372703E-06  1.55864637E-06  1.85133759E-06  1.59546068E-06  1.14107930E-06  1.02452454E-06  8.30728945E-07  4.51055145E-07  6.55565452E-07  6.74702086E-07  6.67133196E-07  7.61809577E-07  1.01523598E-06  1.02778852E-06  1.04023125E-06  9.99768358E-07  9.07098557E-07  8.71269769E-07  9.20067105E-07  1.16827717E-06  1.31265823E-06  1.73367964E-06  2.05820657E-06  2.33448583E-06  3.31607724E-06  4.58475273E-06  5.96158877E-06  8.63298609E-06  1.06448646E-05  8.16588985E-06  5.85560707E-06  4.32765272E-06  3.14017237E-06  2.47164616E-06  1.83572967E-06  2.30207609E-07  8.12741882E-08  1.25643541E-07  1.51523670E-07  1.70845127E-07  2.38771046E-07  3.92207911E-07  4.66243679E-07  5.68389833E-07  1.06239978E-06  1.06239978E-06  1.06239978E-06  1.06239978E-06  1.06239978E-06  1.06239978E-06  1.06239978E-06  1.06239978E-06  6.25889038E-06  7.17623204E-06  6.14545036E-06  3.66531842E-06  2.95351256E-06  2.74033555E-06  2.12218005E-06  1.49617553E-06  1.31360114E-06  1.25477971E-06  1.15109828E-06  1.25663132E-06  1.06239978E-06  1.06239978E-06  1.06239978E-06  1.06239978E-06  1.06239978E-06  1.06239978E-06  1.06239978E-06  1.06239978E-06  1.06239978E-06  1.06239978E-06  1.06239978E-06  1.06239978E-06  1.06239978E-06  1.06239978E-06  1.06239978E-06  1.94444200E-06  1.35283298E-06  8.77711413E-07  4.69164569E-06  9.59384553E-06  1.07385297E-05  7.96285280E-05  7.29447758E-06  2.94111212E-05  2.07346241E-05  2.47207226E-05  2.15305448E-07  3.22045625E-07  2.83395257E-07  2.89180659E-07  3.19351970E-07  3.78399849E-07  4.97167448E-07  5.86640523E-07  6.29105812E-07  5.65473581E-07  5.26952222E-07  5.40900152E-07  5.53589577E-07  5.75510376E-07  1.06239978E-06  1.06239978E-06  4.16372959E-07  3.72453536E-07  3.43772848E-07  3.12025592E-07  2.86648568E-07  2.32656374E-07  1.85044545E-07  1.98015219E-07  2.58199760E-07  4.22124074E-07  6.86030285E-07  1.30334782E-06  1.06239978E-06  1.06239978E-06  1.06239978E-06  1.06239978E-06  1.06239978E-06  1.06239978E-06  1.06239978E-06  1.06239978E-06  1.06239978E-06  1.06239978E-06  1.06239978E-06  1.06239978E-06  1.06239978E-06  1.06239978E-06  1.06239978E-06  4.30084217E-10  7.07616910E-10  9.24021401E-10  1.67735363E-09  1.42781724E-09  1.06320977E-09  4.90199052E-10  2.87225731E-08  1.15369590E-07  8.43112790E-08  1.18309079E-07  1.23254873E-07  6.06597771E-08  5.55551435E-08  4.49528434E-08  4.23100351E-08  4.46618957E-08  5.61454782E-08  7.69022632E-08  3.05977604E-07  4.27758731E-07  5.44682709E-07  6.83669958E-07  7.02028852E-07  1.06239978E-06  1.06239978E-06  1.06239978E-06  1.06239978E-06
      1.87503260E-06  1.68986259E-06  1.75035602E-06  1.81076500E-06  1.78920178E-06  1.62361151E-06  1.40226188E-06  1.26309674E-06  1.35427752E-06  1.61839138E-06  1.65175479E-06  1.44587894E-06  7.28630494E-07  7.73143106E-07  6.84182838E-07  6.54932348E-07  6.96875036E-07  7.19771921E-07  7.17709880E-07  9.22486668E-07  1.05900859E-06  1.13747302E-06  1.18737087E-06  1.20601898E-06  1.10256856E-06  1.26582619E-06  1.53559748E-06  1.69725205E-06  2.20131344E-06  2.53700424E-06  2.88951191E-06  4.15728862E-06  5.84523951E-06  7.52208925E-06  8.99149015E-06  9.89293347E-06  7.97307103E-06  5.35426281E-06  3.75074605E-06  2.68697774E-06  2.17917507E-06  1.68229656E-06  1.26076625E-06  1.99783236E-07  1.99562250E-07  1.66893265E-07  1.29582527E-07  3.09897853E-07  7.50940596E-07  7.86963534E-07  9.49785139E-07  1.06239978E-06  1.06239978E-06  1.06239978E-06  1.06239978E-06  1.06239978E-06  1.06239978E-06  1.06239978E-06  1.06239978E-06  8.20798484E-06  8.58883405E-06  6.86802783E-06  4.25118027E-06  3.38826091E-06  3.00436494E-06  2.34329664E-06  1.77076852E-06  1.53902899E-06  1.40044476E-06  1.48051245E-06  1.48113679E-06  1.06239978E-06  1.06239978E-06  1.06239978E-06  1.06239978E-06  1.06239978E-06  1.06239978E-06  1.06239978E-06  1.06239978E-06  1.99244792E-06  1.91345980E-06  1.83416828E-06  2.06230318E-06  2.62455657E-06  1.06239978E-06  1.06239978E-06  2.25031062E-06  1.54075523E-06  9.99422641E-07  5.26532347E-06  5.10448607E-05  5.98988020E-05  7.59828968E-05  6.07979333E-06  1.90008622E-05  3.05637811E-06  1.77834189E-06  1.74402933E-07  2.00710616E-07  6.60818492E-06  2.50050049E-07  3.02606238E-07  3.45888132E-07  2.98900616E-06  3.66483151E-06  2.67315637E-05  1.10380646E-05  4.13063542E-06  5.94940029E-07  5.31235926E-07  4.67294802E-07  4.39079175E-07  3.79722093E-07  3.98085666E-07  3.30096195E-07  2.97443448E-07  2.98805459E-07  2.78921668E-07  2.41601726E-07  2.31654630E-07  2.50088488E-07  2.89362648E-07  4.10806633E-07  6.64398592E-07  1.09501515E-06  1.06239978E-06  1.06239978E-06  1.06239978E-06  1.06239978E-06  1.06239978E-06  1.06239978E-06  1.06239978E-06  1.06239978E-06  1.06239978E-06  1.06239978E-06  1.06239978E-06  1.06239978E-06  1.06239978E-06  1.06239978E-06  1.06239978E-06  8.62854175E-06  3.48267567E-10  5.61998140E-10  1.07650674E-09  1.65627855E-09  5.37097274E-08  5.07363715E-08  3.06341655E-06  1.13566855E-07  1.76411816E-07  6.25475480E-07  1.34130553E-07  1.12729164E-07  7.60721316E-08  3.58069620E-08  3.76493105E-08  3.54553018E-08  4.36427520E-08  2.07695534E-07  4.42416774E-07  6.18280257E-07  7.86304538E-07  9.05288721E-07  1.06239978E-06  1.06239978E-06  1.06239978E-06  1.06239978E-06  1.06239978E-06
      1.46704148E-06  1.33495561E-06  1.39695869E-06  1.46103765E-06  1.50702720E-06  1.45434284E-06  1.47137111E-06  1.40485855E-06  1.48675138E-06  1.76914583E-06  1.70943635E-06  1.41346715E-06  9.57207616E-07  6.90314435E-07  6.19748304E-07  5.86220715E-07  6.62234105E-07  6.70213055E-07  8.51691114E-07  1.02099624E-06  1.03107535E-06  9.99202103E-07  1.18623591E-06  1.63513969E-06  1.63421895E-06  1.86422068E-06  2.11611425E-06  2.10106358E-06  2.65934478E-06  2.95908250E-06  3.43684914E-06  4.83992656E-06  6.80362404E-06  7.90627847E-06  8.58574151E-06  8.38024806E-06  6.24160373E-06  4.06107629E-06  1.06239978E-06  1.06239978E-06  1.56202991E-06  1.21964416E-06  1.00785474E-06  9.62810930E-06  8.92540237E-06  1.55837429E-07  7.08265169E-07  3.94825350E-07  9.68756518E-07  1.03474754E-06  1.17218959E-06  1.06239978E-06  1.06239978E-06  1.06239978E-06  3.56424950E-06  1.06239978E-06  1.06239978E-06  1.06239978E-06  1.06239978E-06  1.06239978E-06  8.02955023E-06  5.97530441E-06  4.14945871E-06  4.14953161E-06  3.58978151E-06  2.39348760E-06  1.95210219E-06  1.82165287E-06  2.00995538E-06  2.35573837E-06  2.23491395E-06  1.06239978E-06  1.06239978E-06  1.06239978E-06  1.06239978E-06  1.06239978E-06  1.06239978E-06  1.06239978E-06  1.73208714E-06  1.83566920E-06  1.69241940E-06  1.67693563E-06  2.06600641E-06  2.67686587E-06  3.03445997E-06  2.98867143E-06  2.59948853E-06  1.82086500E-06  1.14014505E-06  4.35100777E-05  4.63261110E-05  9.40490341E-06  4.91152085E-06  4.77888450E-06  3.08281110E-06  8.41239401E-07  1.39260183E-07  1.30854417E-07  2.68866283E-07  1.47666817E-07  1.53768957E-07  2.17982118E-06  2.15589547E-05  1.69541097E-04  1.58364617E-04  1.63671853E-04  4.78934273E-05  4.67041927E-05  3.67192836E-06  2.93255103E-06  3.26308214E-07  3.11540518E-07  3.31547654E-07  4.04392358E-07  3.53806768E-07  3.08277049E-07  2.90130294E-07  2.61142900E-07  2.78778995E-07  2.90124879E-07  2.71338398E-07  3.12913135E-07  4.61314572E-07  6.75124471E-07  1.06239978E-06  1.06239978E-06  1.06239978E-06  1.06239978E-06  1.06239978E-06  1.06239978E-06  1.06239978E-06  1.06239978E-06  1.06239978E-06  1.06239978E-06  1.06239978E-06  1.06239978E-06  1.06239978E-06  1.06239978E-06  1.06239978E-06  8.27414598E-06  7.95733795E-06  7.14909236E-06  5.14280148E-08  6.88908381E-08  8.66641552E-08  4.25394440E-08  3.98425860E-08  1.88167957E-07  1.88045689E-07  2.57451292E-07  2.61583393E-07  2.37819470E-07  1.48274926E-07  5.76285590E-08  6.04446358E-08  6.99562017E-08  7.24773511E-08  8.41528551E-08  5.51842431E-07  6.73943199E-07  8.41556271E-07  1.05139914E-06  1.20911087E-06  1.06239978E-06  1.06239978E-06  1.06239978E-06  1.06239978E-06  1.06239978E-06
      1.40833960E-06  1.20875647E-06  1.15291967E-06  1.05678891E-06  1.16484326E-06  1.06239978E-06  1.06239978E-06  1.06239978E-06  1.64369693E-06  1.84311942E-06  1.81577010E-06  1.49996025E-06  1.16350114E-06  8.91436492E-07  7.61777793E-07  6.59258949E-07  5.85283673E-07  5.50136436E-07  7.87087968E-07  9.10368184E-07  9.04203957E-07  1.07046621E-06  1.40156153E-06  1.84875990E-06  2.50493556E-06  2.59157753E-06  2.53362209E-06  2.54062801E-06  2.99784726E-06  3.24660749E-06  3.74866284E-06  4.91196307E-06  6.35598815E-06  6.73878085E-06  6.30548330E-06  5.91330230E-06  4.47512321E-06  1.06239978E-06  1.06239978E-06  1.06239978E-06  1.16567103E-06  9.82207476E-07  8.62160026E-07  6.96485689E-07  8.34161888E-06  8.09864676E-06  8.64372260E-06  8.68685003E-07  1.05039876E-06  1.09635290E-06  1.19753857E-06  1.63224820E-06  2.25802513E-06  2.85904888E-06  3.54687736E-06  4.47726109E-06  5.74005929E-06  7.54080247E-06  1.06239978E-06  1.06239978E-06  1.06239978E-06  4.83848136E-06  4.08575962E-06  3.35199501E-06  3.32455318E-06  2.47302242E-06  2.00786879E-06  2.30380055E-06  2.53085292E-06  2.72766191E-06  1.06239978E-06  1.06239978E-06  1.06239978E-06  1.06239978E-06  1.06239978E-06  1.06239978E-06  1.06239978E-06  2.31973801E-06  1.91790416E-06  1.61904542E-06  1.62636269E-06  1.74315636E-06  2.12730304E-06  2.75905056E-06  3.27590477E-06  3.31445015E-06  2.56719933E-06  1.80213719E-06  7.52664130E-06  5.09987004E-05  5.13204472E-05  9.22565674E-06  7.85269225E-07  2.28206173E-07  9.56119426E-08  8.90537465E-08  6.77475379E-08  6.69442311E-08  1.06040481E-07  7.03095676E-08  5.46283015E-08  4.25664489E-07  3.35195085E-06  2.61297777E-05  3.94624690E-05  3.38864782E-05  1.76334937E-04  1.67447390E-04  3.95613375E-05  3.35165644E-05  1.58756936E-05  2.32844203E-05  2.17021872E-05  1.24700202E-05  4.26923551E-06  1.82499209E-06  3.11475192E-07  1.83000236E-06  3.07984745E-07  3.34393004E-07  3.39827922E-07  3.77394096E-07  5.27823112E-07  6.47386893E-07  1.06239978E-06  1.06239978E-06  1.06239978E-06  1.06239978E-06  1.06239978E-06  1.06239978E-06  1.06239978E-06  1.06239978E-06  1.06239978E-06  1.06239978E-06  1.06239978E-06  1.06239978E-06  1.06239978E-06  1.06239978E-06  1.06239978E-06  8.21177978E-06  6.98074275E-06  6.73887704E-06  6.32868384E-06  4.20127066E-08  1.20118228E-07  7.05494409E-08  6.68529305E-08  2.33116121E-07  4.20737323E-07  2.92242933E-07  2.93424515E-07  3.04029941E-07  3.91864421E-07  5.20325054E-06  1.71572233E-06  3.02215765E-07  3.28821453E-07  6.82019792E-06  9.02486099E-07  1.12784132E-06  1.48887337E-06  1.67289721E-06  1.89102244E-06  1.83960968E-06  1.06239978E-06  1.06239978E-06  1.06239978E-06  1.06239978E-06
      3.09165131E-07  1.06239978E-06  1.06239978E-06  1.06239978E-06  1.06239978E-06  1.06239978E-06  1.06239978E-06  1.06239978E-06  1.06239978E-06  1.06239978E-06  2.13401704E-06  1.74678700E-06  1.38728338E-06  1.08033362E-06  8.26654561E-07  6.60788020E-07  5.74469338E-07  5.71838244E-07  6.60390556E-07  1.06239978E-06  1.06239978E-06  1.06239978E-06  1.06239978E-06  1.06239978E-06  3.19277644E-06  3.64176336E-06  3.45430432E-06  3.45865727E-06  3.21425315E-06  3.10614917E-06  4.21275842E-06  4.41758580E-06  5.42323785E-06  5.33311763E-06  5.33071155E-06  4.66566298E-06  3.31234376E-06  1.06239978E-06  1.06239978E-06  1.06239978E-06  1.06239978E-06  8.37799408E-07  8.07206789E-07  6.88443357E-07  8.65938652E-06  1.13964881E-04  1.11798057E-04  9.48562693E-06  1.02254553E-06  1.19276076E-06  1.37535667E-06  1.56354331E-06  2.15917401E-06  2.98015841E-06  3.90034976E-06  4.89920872E-06  6.27586658E-06  8.54511423E-06  8.49091711E-06  1.06239978E-06  1.06239978E-06  4.78120424E-06  3.83078024E-06  3.02175286E-06  3.07036670E-06  2.64696142E-06  2.74708350E-06  2.95934243E-06  1.06239978E-06  1.06239978E-06  1.06239978E-06  1.06239978E-06  1.06239978E-06  1.06239978E-06  2.07155779E-06  2.21065538E-06  2.10458682E-06  2.55903255E-06  2.41148013E-06  1.94897116E-06  5.11569617E-06  1.41098935E-05  1.48841408E-05  8.06147495E-06  2.60792472E-06  2.71858764E-06  2.20032513E-06  1.78363921E-06  8.62618310E-06  6.17379407E-05  6.24673875E-06  1.60706245E-06  1.24803616E-07  5.24884425E-08  9.20430847E-08  4.63462067E-08  3.16997761E-08  3.53717821E-08  2.59148363E-08  2.02770796E-08  4.24257723E-08  1.79837374E-08  1.48920852E-07  1.74472073E-06  3.32520663E-06  3.32441082E-05  1.91006357E-04  1.77244135E-04  5.71906684E-05  4.90101106E-05  4.04970423E-05  3.77002312E-05  2.42373029E-05  8.53271999E-05  6.47087003E-05  1.14944255E-05  2.17765149E-06  2.16442433E-06  4.91987576E-06  1.44799505E-06  4.48250937E-07  5.49321001E-07  6.38467896E-07  1.06239978E-06  1.06239978E-06  1.06239978E-06  1.06239978E-06  1.06239978E-06  1.06239978E-06  1.06239978E-06  1.06239978E-06  1.06239978E-06  1.06239978E-06  1.06239978E-06  1.06239978E-06  1.06239978E-06  1.06239978E-06  1.06239978E-06  1.06239978E-06  8.31675337E-06  7.15807772E-06  6.96104202E-06  6.67258462E-06  6.38015904E-06  6.37165346E-06  6.14043905E-06  5.14093845E-06  4.14559708E-06  2.99225362E-06  3.38793727E-07  3.71468481E-07  4.20458859E-06  3.13629257E-06  2.74562104E-06  1.46301692E-05  1.23119754E-05  4.84171772E-05  1.95050606E-05  4.19766037E-06  2.08900335E-06  2.73624067E-06  3.26818076E-06  3.16418439E-06  2.88686404E-06  1.06239978E-06  1.06239978E-06  1.06239978E-06  1.06239978E-06
      1.06239978E-06  1.06239978E-06  1.06239978E-06  1.06239978E-06  1.06239978E-06  1.06239978E-06  1.06239978E-06  1.06239978E-06  1.06239978E-06  1.06239978E-06  1.06239978E-06  1.63938932E-06  1.34683953E-06  5.69624331E-06  8.25085848E-07  6.90011327E-07  6.18697889E-07  1.06239978E-06  1.06239978E-06  1.06239978E-06  1.06239978E-06  1.06239978E-06  1.06239978E-06  1.06239978E-06  1.06239978E-06  4.03508422E-06  3.83321211E-06  3.95469191E-06  4.44493866E-06  3.77490654E-06  4.16351473E-06  4.04885505E-06  4.07905408E-06  3.46851050E-06  3.48799103E-06  3.17320916E-06  2.79049095E-06  1.06239978E-06  1.06239978E-06  1.06239978E-06  1.06239978E-06  1.06239978E-06  7.64943436E-07  7.21134861E-07  1.45072579E-04  1.22960885E-04  9.59921919E-06  1.18742172E-05  3.08726533E-06  5.72779544E-06  1.59872050E-06  2.08213604E-06  2.59687831E-06  3.30281087E-06  4.23401485E-06  5.27798193E-06  6.17024312E-06  7.79031166E-06  7.82451473E-06  1.06239978E-06  1.06239978E-06  3.72570102E-06  3.17587558E-06  3.17961233E-06  3.44777192E-06  3.55648987E-06  3.78043131E-06  3.30519061E-06  1.06239978E-06  1.06239978E-06  3.41232617E-06  2.92444510E-06  2.56138254E-06  2.14816663E-06  1.91152166E-06  1.91561654E-06  1.95226509E-06  2.64705152E-06  2.46943001E-06  6.36671634E-06  1.76398258E-06  7.24539592E-06  3.37478727E-05  3.08933712E-05  2.87873267E-05  1.41984128E-05  1.43675898E-05  1.36087025E-05  1.05650235E-05  8.51982921E-06  6.91959599E-06  2.82606953E-07  5.30351252E-08  4.58067208E-08  6.24043882E-08  2.48288218E-08  1.95354518E-08  4.09618039E-08  2.66933185E-08  3.97929658E-08  2.54392734E-08  1.62294671E-08  1.74650893E-08  1.01649859E-07  4.54413923E-07  2.81860141E-06  1.72838837E-05  1.08717682E-05  4.17458756E-05  1.05569183E-05  5.11769053E-05  4.93052886E-05  1.49168365E-04  1.07943311E-04  8.27096696E-05  1.97955005E-05  1.92519978E-05  6.18094282E-06  6.24299504E-06  6.52085213E-06  6.49909461E-07  6.91895023E-07  7.83598351E-07  1.06239978E-06  1.06239978E-06  1.06239978E-06  1.06239978E-06  1.06239978E-06  1.06239978E-06  1.06239978E-06  1.06239978E-06  1.06239978E-06  1.06239978E-06  1.06239978E-06  1.06239978E-06  1.06239978E-06  1.06239978E-06  1.06239978E-06  1.06239978E-06  8.07426617E-06  7.75203529E-06  7.55848330E-06  7.09087618E-06  7.13951466E-06  7.07599817E-06  6.02110167E-06  5.11994425E-06  4.02507962E-06  3.11226325E-06  2.23128032E-06  2.14541591E-06  2.00197805E-05  8.59765580E-06  2.60591254E-05  1.36536317E-04  1.13682752E-04  9.99587253E-05  3.14783231E-05  7.65712308E-06  3.72433498E-06  4.66904519E-06  5.51799414E-06  5.08280913E-06  4.49119950E-06  1.06239978E-06  1.06239978E-06  1.06239978E-06  1.06239978E-06
      1.06239978E-06  1.06239978E-06  1.06239978E-06  1.06239978E-06  1.06239978E-06  1.06239978E-06  1.06239978E-06  1.06239978E-06  1.06239978E-06  1.06239978E-06  1.06239978E-06  2.27708352E-05  3.10418539E-05  4.79229366E-05  1.06239978E-06  1.06239978E-06  1.06239978E-06  1.06239978E-06  1.06239978E-06  1.06239978E-06  1.06239978E-06  1.06239978E-06  1.06239978E-06  1.06239978E-06  1.06239978E-06  4.09056245E-06  4.31939287E-06  4.14007501E-06  4.09542489E-06  3.74571292E-06  3.63923318E-06  3.53144667E-06  3.11059955E-06  2.66864320E-06  2.09705113E-06  1.96905839E-06  1.06239978E-06  1.06239978E-06  1.06239978E-06  1.06239978E-06  1.06239978E-06  1.06239978E-06  6.94848837E-07  5.92237937E-07  1.34606709E-04  1.08423005E-05  1.40413686E-05  1.38016561E-05  9.98279883E-05  2.37414824E-05  7.27292515E-06  2.60541760E-06  3.29413356E-06  4.07605450E-06  4.64140877E-06  5.73129942E-06  5.91232850E-06  6.79026570E-06  7.33763729E-06  5.78256767E-06  4.45956960E-06  4.07207787E-06  4.11586333E-06  3.26562687E-06  3.60726081E-06  4.18060548E-06  4.42846876E-06  3.61357560E-06  3.27045296E-06  2.73984517E-06  3.30669697E-06  2.86628741E-06  2.95075095E-06  2.48400832E-06  1.94286921E-06  1.76344037E-06  1.80896464E-06  5.77255759E-06  2.67751842E-06  2.11839241E-06  8.02286159E-06  6.71629620E-06  5.79463067E-07  1.42222688E-05  3.37463536E-05  3.35916832E-05  1.38140574E-04  1.19939525E-04  7.29046616E-06  7.65954474E-06  6.81459898E-07  2.96475410E-07  4.23096635E-08  5.52630056E-08  3.79383289E-08  2.84599181E-08  3.06479253E-08  3.56930920E-08  2.24697512E-08  2.12693870E-08  1.79484475E-08  9.78157744E-09  1.53068218E-08  1.32714716E-08  1.27139911E-07  4.00051689E-07  2.83521926E-06  8.64749113E-06  6.74681344E-06  4.11802852E-05  2.53089738E-04  1.85198206E-05  1.61637760E-05  1.40771812E-04  1.17242578E-04  2.60457671E-05  1.21070100E-06  1.08890783E-06  1.20268539E-06  8.08105977E-06  4.14260769E-06  8.24928234E-07  7.96755786E-07  1.06239978E-06  1.06239978E-06  1.06239978E-06  1.06239978E-06  1.06239978E-06  1.06239978E-06  1.06239978E-06  1.06239978E-06  1.06239978E-06  1.06239978E-06  1.06239978E-06  1.06239978E-06  1.06239978E-06  1.06239978E-06  1.06239978E-06  8.90068258E-06  1.06046302E-05  9.72296429E-06  9.06900384E-06  8.41228317E-06  8.30383329E-06  7.39799310E-06  6.19142993E-06  4.78534794E-06  3.66247028E-06  3.20461902E-06  2.86531514E-06  3.82965740E-05  6.41034536E-05  1.93550131E-04  3.39411592E-04  2.70850550E-04  2.12524396E-04  1.64788648E-04  4.89434840E-05  1.18482361E-05  6.20569480E-06  7.26588546E-06  7.87173527E-06  7.24346308E-06  1.06239978E-06  1.06239978E-06  1.06239978E-06  1.06239978E-06  1.06239978E-06
      1.06239978E-06  1.06239978E-06  1.06239978E-06  1.06239978E-06  1.06239978E-06  1.06239978E-06  1.06239978E-06  1.06239978E-06  1.06239978E-06  1.06239978E-06  1.06239978E-06  1.06239978E-06  1.06239978E-06  1.06239978E-06  1.06239978E-06  1.06239978E-06  1.06239978E-06  1.06239978E-06  1.06239978E-06  1.06239978E-06  1.06239978E-06  1.06239978E-06  1.06239978E-06  1.06239978E-06  1.06239978E-06  1.06239978E-06  1.06239978E-06  1.06239978E-06  3.34282878E-06  3.08185336E-06  1.06239978E-06  1.06239978E-06  1.06239978E-06  1.06239978E-06  1.06239978E-06  1.06239978E-06  1.57847048E-06  1.06239978E-06  1.06239978E-06  1.06239978E-06  1.06239978E-06  1.06239978E-06  1.03982473E-04  1.05182115E-04  9.92808010E-05  8.30923247E-05  4.36629301E-06  1.76585063E-05  1.73416510E-05  2.13630979E-05  7.13874649E-06  2.97229615E-06  3.79810907E-06  4.79717377E-06  5.57721674E-06  6.11866083E-06  6.56232310E-06  6.68827382E-06  6.44443768E-06  5.35770887E-06  3.83364984E-06  3.83995195E-06  4.38606017E-06  3.46279517E-06  3.76147270E-06  4.13611765E-06  4.59384283E-06  3.92681026E-06  3.16787260E-06  2.73645698E-06  3.00287431E-06  2.46736213E-06  2.52578951E-06  2.35565819E-06  2.14620989E-06  1.64444605E-06  1.77947082E-06  5.16061334E-06  2.37701996E-06  1.01318703E-06  7.09302530E-06  1.45512389E-05  1.36047733E-05  1.30012914E-05  1.38061575E-05  1.47062009E-05  3.52113628E-06  3.01205075E-06  8.58103883E-06  2.42354136E-07  5.13926229E-07  4.63827065E-07  9.07231029E-08  7.79541974E-08  6.90490299E-08  3.96537047E-08  2.64309312E-08  4.73463790E-08  2.34972726E-08  1.81364413E-08  1.11837590E-08  6.97222496E-09  1.00250098E-08  1.01271880E-08  1.08083786E-07  1.23992039E-06  2.86039588E-06  3.00871243E-06  4.92344766E-06  6.13792482E-06  2.85382703E-05  2.40399084E-05  4.91886572E-05  4.55743010E-05  3.94810611E-05  3.26577029E-05  8.97726558E-06  1.40655939E-06  1.44919747E-06  8.69088545E-06  4.42586821E-06  7.48066950E-07  6.84215141E-07  1.06239978E-06  1.06239978E-06  1.06239978E-06  1.06239978E-06  1.06239978E-06  1.06239978E-06  1.06239978E-06  1.06239978E-06  1.06239978E-06  1.06239978E-06  1.06239978E-06  1.06239978E-06  1.06239978E-06  1.06239978E-06  1.06239978E-06  1.02588768E-05  1.18436188E-05  1.30693316E-05  1.14403234E-05  9.28698036E-06  7.74873356E-06  6.98210718E-06  5.59481291E-06  4.47472523E-06  3.83899502E-06  3.23473761E-06  2.97219825E-06  1.29651976E-04  1.71178314E-04  3.80919701E-04  2.76221498E-04  2.16640482E-04  1.58464281E-04  1.18234541E-04  7.86773466E-05  1.97250538E-05  1.00758034E-05  1.06239978E-06  1.06239978E-06  1.00427578E-05  7.16815253E-06  1.06239978E-06  1.06239978E-06  1.06239978E-06  1.06239978E-06