# File generated by Flopy version 3.9.1 on 01/21/2025 at 12:01:13.
BEGIN options
  COMPLEXITY  moderate
END options

