# File generated by Flopy version 3.8.2 on 01/21/2025 at 17:43:21.
BEGIN options
  COMPLEXITY  moderate
END options

