# File generated by Flopy version 3.8.2 on 01/22/2025 at 11:50:56.
BEGIN options
  COMPLEXITY  moderate
END options

