# File generated by Flopy version 3.8.2 on 01/28/2025 at 09:59:19.
BEGIN options
  COMPLEXITY  moderate
END options

