# File generated by Flopy version 3.8.2 on 01/21/2025 at 17:43:21.
BEGIN options
  SAVE_FLOWS
  SAVE_SPECIFIC_DISCHARGE
  SAVE_SATURATION
END options

BEGIN griddata
  icelltype
    CONSTANT  0
  k  LAYERED
    INTERNAL  FACTOR  1.0
      3.33329236E-08  3.33329236E-08  3.33329236E-08  3.33329236E-08  3.33329236E-08  3.33329236E-08  3.33329236E-08  3.33329236E-08  3.33329236E-08  3.33329236E-08  3.33329236E-08  3.33329236E-08  3.33329236E-08  3.33329236E-08  3.33329236E-08  3.33329236E-08  3.33329236E-08  3.33329236E-08  3.33329236E-08  3.33329236E-08  3.33329236E-08  3.33329236E-08  3.33329236E-08  3.33329236E-08  3.33329236E-08  3.33329236E-08  3.33329236E-08  3.33329236E-08  3.33329236E-08  3.33329236E-08  3.33329236E-08  3.33329236E-08  3.33329236E-08  3.33329236E-08  3.33329236E-08  3.33329236E-08  3.33329236E-08  3.33329236E-08  3.33329236E-08  3.33329236E-08  3.33329236E-08  3.33329236E-08
      3.33329236E-08  3.33329236E-08  3.33329236E-08  3.33329236E-08  3.33329236E-08  3.33329236E-08  3.33329236E-08  3.33329236E-08  3.33329236E-08  3.33329236E-08  3.33329236E-08  3.33329236E-08  3.33329236E-08  3.33329236E-08  3.33329236E-08  3.33329236E-08  3.33329236E-08  3.33329236E-08  3.33329236E-08  3.33329236E-08  3.33329236E-08  3.33329236E-08  3.33329236E-08  3.33329236E-08  3.33329236E-08  3.33329236E-08  3.33329236E-08  3.33329236E-08  3.33329236E-08  3.33329236E-08  3.33329236E-08  3.33329236E-08  3.33329236E-08  3.33329236E-08  3.33329236E-08  3.33329236E-08  3.33329236E-08  3.33329236E-08  3.33329236E-08  3.33329236E-08  3.33329236E-08  3.33329236E-08
      3.33329236E-08  3.33329236E-08  3.33329236E-08  3.33329236E-08  3.33329236E-08  3.33329236E-08  3.33329236E-08  3.33329236E-08  3.33329236E-08  3.33329236E-08  3.33329236E-08  3.33329236E-08  3.33329236E-08  3.33329236E-08  3.33329236E-08  3.33329236E-08  3.33329236E-08  3.33329236E-08  3.33329236E-08  3.33329236E-08  3.33329236E-08  3.33329236E-08  3.33329236E-08  3.33329236E-08  3.33329236E-08  3.33329236E-08  3.33329236E-08  3.33329236E-08  3.33329236E-08  3.33329236E-08  3.33329236E-08  3.33329236E-08  3.33329236E-08  3.33329236E-08  3.33329236E-08  3.33329236E-08  3.33329236E-08  3.33329236E-08  3.33329236E-08  3.33329236E-08  3.33329236E-08  3.33329236E-08
      3.33329236E-08  3.33329236E-08  3.33329236E-08  3.33329236E-08  3.33329236E-08  3.33329236E-08  3.33329236E-08  3.33329236E-08  3.33329236E-08  3.33329236E-08  3.33329236E-08  3.33329236E-08  3.33329236E-08  3.33329236E-08  3.33329236E-08  3.33329236E-08  3.33329236E-08  3.33329236E-08  3.33329236E-08  3.33329236E-08  3.33329236E-08  3.33329236E-08  3.33329236E-08  3.33329236E-08  3.33329236E-08  3.33329236E-08  3.33329236E-08  3.33329236E-08  3.33329236E-08  3.33329236E-08  3.33329236E-08  3.33329236E-08  3.33329236E-08  3.33329236E-08  3.33329236E-08  3.33329236E-08  3.33329236E-08  3.33329236E-08  3.33329236E-08  3.33329236E-08  3.33329236E-08  3.33329236E-08
      3.33329236E-08  3.33329236E-08  3.33329236E-08  3.33329236E-08  3.33329236E-08  3.33329236E-08  3.33329236E-08  3.33329236E-08  3.33329236E-08  3.33329236E-08  3.33329236E-08  3.33329236E-08  3.33329236E-08  3.33329236E-08  3.33329236E-08  3.33329236E-08  3.33329236E-08  3.33329236E-08  3.33329236E-08  3.33329236E-08  3.33329236E-08  3.33329236E-08  3.33329236E-08  3.33329236E-08  3.33329236E-08  3.33329236E-08  3.33329236E-08  3.33329236E-08  3.33329236E-08  3.33329236E-08  3.33329236E-08  3.33329236E-08  3.33329236E-08  3.33329236E-08  3.33329236E-08  3.33329236E-08  3.33329236E-08  3.33329236E-08  3.33329236E-08  3.33329236E-08  3.33329236E-08  3.33329236E-08
      3.33329236E-08  3.33329236E-08  3.33329236E-08  3.33329236E-08  3.33329236E-08  3.33329236E-08  3.33329236E-08  3.33329236E-08  3.33329236E-08  3.33329236E-08  3.33329236E-08  3.33329236E-08  3.33329236E-08  3.33329236E-08  3.33329236E-08  3.33329236E-08  3.33329236E-08  3.33329236E-08  3.33329236E-08  3.33329236E-08  3.33329236E-08  3.33329236E-08  3.33329236E-08  3.33329236E-08  3.33329236E-08  3.33329236E-08  3.33329236E-08  3.33329236E-08  3.33329236E-08  3.33329236E-08  3.33329236E-08  3.33329236E-08  3.33329236E-08  3.33329236E-08  3.33329236E-08  3.33329236E-08  3.33329236E-08  3.33329236E-08  3.33329236E-08  3.33329236E-08  3.33329236E-08  3.33329236E-08
      3.33329236E-08  3.33329236E-08  3.33329236E-08  3.33329236E-08  3.33329236E-08  3.33329236E-08  3.33329236E-08  3.33329236E-08  3.33329236E-08  3.33329236E-08  3.33329236E-08  3.33329236E-08  3.33329236E-08  3.33329236E-08  3.33329236E-08  3.33329236E-08  3.33329236E-08  3.33329236E-08  3.33329236E-08  3.33329236E-08  3.33329236E-08  3.33329236E-08  3.33329236E-08  3.33329236E-08  3.33329236E-08  3.33329236E-08  3.33329236E-08  3.33329236E-08  3.33329236E-08  3.33329236E-08  3.33329236E-08  3.33329236E-08  3.33329236E-08  3.33329236E-08  3.33329236E-08  3.33329236E-08  3.33329236E-08  3.33329236E-08  3.33329236E-08  3.33329236E-08  3.33329236E-08  3.33329236E-08
      3.33329236E-08  3.33329236E-08  3.33329236E-08  3.33329236E-08  3.33329236E-08  3.33329236E-08  3.33329236E-08  3.33329236E-08  3.33329236E-08  3.33329236E-08  3.33329236E-08  3.33329236E-08  3.33329236E-08  3.33329236E-08  3.33329236E-08  3.33329236E-08  3.33329236E-08  3.33329236E-08  3.33329236E-08  3.33329236E-08  3.33329236E-08  3.33329236E-08  3.33329236E-08  3.33329236E-08  3.33329236E-08  3.33329236E-08  3.33329236E-08  3.33329236E-08  3.33329236E-08  3.33329236E-08  3.33329236E-08  3.33329236E-08  3.33329236E-08  3.33329236E-08  3.33329236E-08  3.33329236E-08  3.33329236E-08  3.33329236E-08  3.33329236E-08  3.33329236E-08  3.33329236E-08  3.33329236E-08
      3.33329236E-08  3.33329236E-08  3.33329236E-08  3.33329236E-08  3.33329236E-08  3.33329236E-08  3.33329236E-08  3.33329236E-08  3.33329236E-08  3.33329236E-08  3.33329236E-08  3.33329236E-08  3.33329236E-08  3.33329236E-08  3.33329236E-08  3.33329236E-08  3.33329236E-08  3.33329236E-08  3.33329236E-08  3.33329236E-08  3.33329236E-08  3.33329236E-08  3.33329236E-08  3.33329236E-08  3.33329236E-08  3.33329236E-08  3.33329236E-08  3.33329236E-08  3.33329236E-08  3.33329236E-08  3.33329236E-08  3.33329236E-08  3.33329236E-08  3.33329236E-08  3.33329236E-08  3.33329236E-08  3.33329236E-08  3.33329236E-08  3.33329236E-08  3.33329236E-08  3.33329236E-08  3.33329236E-08
      3.33329236E-08  3.33329236E-08  3.33329236E-08  3.33329236E-08  3.33329236E-08  3.33329236E-08  3.33329236E-08  3.33329236E-08  3.33329236E-08  3.33329236E-08  3.33329236E-08  3.33329236E-08  3.33329236E-08  3.33329236E-08  3.33329236E-08  3.33329236E-08  3.33329236E-08  3.33329236E-08  3.33329236E-08  3.33329236E-08  3.33329236E-08  3.33329236E-08  3.33329236E-08  3.33329236E-08  3.33329236E-08  3.33329236E-08  3.33329236E-08  3.33329236E-08  3.33329236E-08  3.33329236E-08  3.33329236E-08  3.33329236E-08  3.33329236E-08  3.33329236E-08  3.33329236E-08  3.33329236E-08  3.33329236E-08  3.33329236E-08  3.33329236E-08  3.33329236E-08  3.33329236E-08  3.33329236E-08
      3.33329236E-08  3.33329236E-08  3.33329236E-08  3.33329236E-08  3.33329236E-08  3.33329236E-08  3.33329236E-08  3.33329236E-08  3.33329236E-08  3.33329236E-08  3.33329236E-08  3.33329236E-08  3.33329236E-08  3.33329236E-08  3.33329236E-08  3.33329236E-08  3.33329236E-08  3.33329236E-08  3.33329236E-08  3.33329236E-08  3.33329236E-08  3.33329236E-08  3.33329236E-08  3.33329236E-08  3.33329236E-08  3.33329236E-08  3.33329236E-08  3.33329236E-08  3.33329236E-08  3.33329236E-08  3.33329236E-08  3.33329236E-08  3.33329236E-08  3.33329236E-08  3.33329236E-08  3.33329236E-08  3.33329236E-08  3.33329236E-08  3.33329236E-08  3.33329236E-08  3.33329236E-08  3.33329236E-08
      3.33329236E-08  3.33329236E-08  3.33329236E-08  3.33329236E-08  3.33329236E-08  3.33329236E-08  3.33329236E-08  3.33329236E-08  3.33329236E-08  3.33329236E-08  3.33329236E-08  3.33329236E-08  3.33329236E-08  3.33329236E-08  3.33329236E-08  3.33329236E-08  3.33329236E-08  3.33329236E-08  3.33329236E-08  3.33329236E-08  3.33329236E-08  3.33329236E-08  3.33329236E-08  3.33329236E-08  3.33329236E-08  3.33329236E-08  3.33329236E-08  3.33329236E-08  3.33329236E-08  3.33329236E-08  3.33329236E-08  3.33329236E-08  3.33329236E-08  3.33329236E-08  3.33329236E-08  3.33329236E-08  3.33329236E-08  3.33329236E-08  3.33329236E-08  3.33329236E-08  3.33329236E-08  3.33329236E-08
      3.33329236E-08  3.33329236E-08  3.33329236E-08  3.33329236E-08  3.33329236E-08  3.33329236E-08  3.33329236E-08  3.33329236E-08  3.33329236E-08  3.33329236E-08  3.33329236E-08  3.33329236E-08  3.33329236E-08  3.33329236E-08  3.33329236E-08  3.33329236E-08  3.33329236E-08  3.33329236E-08  3.33329236E-08  3.33329236E-08  3.33329236E-08  3.33329236E-08  3.33329236E-08  3.33329236E-08  3.33329236E-08  3.33329236E-08  3.33329236E-08  3.33329236E-08  3.33329236E-08  3.33329236E-08  3.33329236E-08  3.33329236E-08  3.33329236E-08  3.33329236E-08  3.33329236E-08  3.33329236E-08  3.33329236E-08  3.33329236E-08  3.33329236E-08  3.33329236E-08  3.33329236E-08  3.33329236E-08
      3.33329236E-08  3.33329236E-08  3.33329236E-08  3.33329236E-08  3.33329236E-08  3.33329236E-08  3.33329236E-08  3.33329236E-08  3.33329236E-08  3.33329236E-08  3.33329236E-08  3.33329236E-08  3.33329236E-08  3.33329236E-08  3.33329236E-08  3.33329236E-08  3.33329236E-08  3.33329236E-08  3.33329236E-08  3.33329236E-08  3.33329236E-08  3.33329236E-08  3.33329236E-08  3.33329236E-08  3.33329236E-08  3.33329236E-08  3.33329236E-08  3.33329236E-08  3.33329236E-08  3.33329236E-08  3.33329236E-08  3.33329236E-08  3.33329236E-08  3.33329236E-08  3.33329236E-08  3.33329236E-08  3.33329236E-08  3.33329236E-08  3.33329236E-08  3.33329236E-08  3.33329236E-08  3.33329236E-08
      3.33329236E-08  3.33329236E-08  3.33329236E-08  3.33329236E-08  3.33329236E-08  3.33329236E-08  3.33329236E-08  3.33329236E-08  3.33329236E-08  3.33329236E-08  3.33329236E-08  3.33329236E-08  3.33329236E-08  3.33329236E-08  3.33329236E-08  3.33329236E-08  3.33329236E-08  3.33329236E-08  3.33329236E-08  3.33329236E-08  3.33329236E-08  3.33329236E-08  3.33329236E-08  3.33329236E-08  3.33329236E-08  3.33329236E-08  3.33329236E-08  3.33329236E-08  3.33329236E-08  3.33329236E-08  3.33329236E-08  3.33329236E-08  3.33329236E-08  3.33329236E-08  3.33329236E-08  3.33329236E-08  3.33329236E-08  3.33329236E-08  3.33329236E-08  3.33329236E-08  3.33329236E-08  3.33329236E-08
      3.33329236E-08  3.33329236E-08  3.33329236E-08  3.33329236E-08  3.33329236E-08  3.33329236E-08  3.33329236E-08  3.33329236E-08  3.33329236E-08  3.33329236E-08  3.33329236E-08  3.33329236E-08  3.33329236E-08  3.33329236E-08  3.33329236E-08  3.33329236E-08  3.33329236E-08  3.33329236E-08  3.33329236E-08  3.33329236E-08  3.33329236E-08  3.33329236E-08  3.33329236E-08  3.33329236E-08  3.33329236E-08  3.33329236E-08  3.33329236E-08  3.33329236E-08  3.33329236E-08  3.33329236E-08  3.33329236E-08  3.33329236E-08  3.33329236E-08  3.33329236E-08  3.33329236E-08  3.33329236E-08  3.33329236E-08  3.33329236E-08  3.33329236E-08  3.33329236E-08  3.33329236E-08  3.33329236E-08
      3.33329236E-08  3.33329236E-08  3.33329236E-08  3.33329236E-08  3.33329236E-08  3.33329236E-08  3.33329236E-08  3.33329236E-08  3.33329236E-08  3.33329236E-08  3.33329236E-08  3.33329236E-08  3.33329236E-08  3.33329236E-08  3.33329236E-08  3.33329236E-08  3.33329236E-08  3.33329236E-08  3.33329236E-08  3.33329236E-08  3.33329236E-08  3.33329236E-08  3.33329236E-08  3.33329236E-08  3.33329236E-08  3.33329236E-08  3.33329236E-08  3.33329236E-08  3.33329236E-08  3.33329236E-08  3.33329236E-08  3.33329236E-08  3.33329236E-08  3.33329236E-08  3.33329236E-08  3.33329236E-08  3.33329236E-08  3.33329236E-08  3.33329236E-08  3.33329236E-08  3.33329236E-08  3.33329236E-08
      3.33329236E-08  3.33329236E-08  3.33329236E-08  3.33329236E-08  3.33329236E-08  3.33329236E-08  3.33329236E-08  3.33329236E-08  3.33329236E-08  3.33329236E-08  3.33329236E-08  3.33329236E-08  3.33329236E-08  3.33329236E-08  3.33329236E-08  3.33329236E-08  3.33329236E-08  3.33329236E-08  3.33329236E-08  3.33329236E-08  3.33329236E-08  3.33329236E-08  3.33329236E-08  3.33329236E-08  3.33329236E-08  3.33329236E-08  3.33329236E-08  3.33329236E-08  3.33329236E-08  3.33329236E-08  3.33329236E-08  3.33329236E-08  3.33329236E-08  3.33329236E-08  3.33329236E-08  3.33329236E-08  3.33329236E-08  3.33329236E-08  3.33329236E-08  3.33329236E-08  3.33329236E-08  3.33329236E-08
      3.33329236E-08  3.33329236E-08  3.33329236E-08  3.33329236E-08  3.33329236E-08  3.33329236E-08  3.33329236E-08  3.33329236E-08  3.33329236E-08  3.33329236E-08  3.33329236E-08  3.33329236E-08  3.33329236E-08  3.33329236E-08  3.33329236E-08  3.33329236E-08  3.33329236E-08  3.33329236E-08  3.33329236E-08  3.33329236E-08  3.33329236E-08  3.33329236E-08  3.33329236E-08  3.33329236E-08  3.33329236E-08  3.33329236E-08  3.33329236E-08  3.33329236E-08  3.33329236E-08  3.33329236E-08  3.33329236E-08  3.33329236E-08  3.33329236E-08  3.33329236E-08  3.33329236E-08  3.33329236E-08  3.33329236E-08  3.33329236E-08  3.33329236E-08  3.33329236E-08  3.33329236E-08  3.33329236E-08
      3.33329236E-08  3.33329236E-08  3.33329236E-08  3.33329236E-08  3.33329236E-08  3.33329236E-08  3.33329236E-08  3.33329236E-08  3.33329236E-08  3.33329236E-08  3.33329236E-08  3.33329236E-08  3.33329236E-08  3.33329236E-08  3.33329236E-08  3.33329236E-08  3.33329236E-08  3.33329236E-08  3.33329236E-08  3.33329236E-08  3.33329236E-08  3.33329236E-08  3.33329236E-08  3.33329236E-08  3.33329236E-08  3.33329236E-08  3.33329236E-08  3.33329236E-08  3.33329236E-08  3.33329236E-08  3.33329236E-08  3.33329236E-08  3.33329236E-08  3.33329236E-08  3.33329236E-08  3.33329236E-08  3.33329236E-08  3.33329236E-08  3.33329236E-08  3.33329236E-08  3.33329236E-08  3.33329236E-08
      3.33329236E-08  3.33329236E-08  3.33329236E-08  3.33329236E-08  3.33329236E-08  3.33329236E-08  3.33329236E-08  3.33329236E-08  3.33329236E-08  3.33329236E-08  3.33329236E-08  3.33329236E-08  3.33329236E-08  3.33329236E-08  3.33329236E-08  3.33329236E-08  3.33329236E-08  3.33329236E-08  3.33329236E-08  3.33329236E-08  3.33329236E-08  3.33329236E-08  3.33329236E-08  3.33329236E-08  3.33329236E-08  3.33329236E-08  3.33329236E-08  3.33329236E-08  3.33329236E-08  3.33329236E-08  3.33329236E-08  3.33329236E-08  3.33329236E-08  3.33329236E-08  3.33329236E-08  3.33329236E-08  3.33329236E-08  3.33329236E-08  3.33329236E-08  3.33329236E-08  3.33329236E-08  3.33329236E-08
    INTERNAL  FACTOR  1.0
      3.33329236E-08  3.33329236E-08  3.33329236E-08  3.33329236E-08  3.33329236E-08  3.33329236E-08  3.33329236E-08  3.33329236E-08  3.33329236E-08  3.33329236E-08  3.33329236E-08  3.33329236E-08  3.33329236E-08  3.33329236E-08  3.33329236E-08  3.33329236E-08  3.33329236E-08  3.33329236E-08  3.33329236E-08  3.33329236E-08  3.33329236E-08  3.33329236E-08  3.33329236E-08  3.33329236E-08  3.33329236E-08  3.33329236E-08  3.33329236E-08  3.33329236E-08  3.33329236E-08  3.33329236E-08  3.33329236E-08  3.33329236E-08  3.33329236E-08  3.33329236E-08  3.33329236E-08  3.33329236E-08  3.33329236E-08  3.33329236E-08  3.33329236E-08  3.33329236E-08  3.33329236E-08  3.33329236E-08
      3.33329236E-08  3.33329236E-08  3.33329236E-08  3.33329236E-08  3.33329236E-08  3.33329236E-08  3.33329236E-08  3.33329236E-08  3.33329236E-08  3.33329236E-08  3.33329236E-08  3.33329236E-08  3.33329236E-08  3.33329236E-08  3.33329236E-08  3.33329236E-08  3.33329236E-08  3.33329236E-08  3.33329236E-08  3.33329236E-08  3.33329236E-08  3.33329236E-08  3.33329236E-08  3.33329236E-08  3.33329236E-08  3.33329236E-08  3.33329236E-08  3.33329236E-08  3.33329236E-08  3.33329236E-08  3.33329236E-08  3.33329236E-08  3.33329236E-08  3.33329236E-08  3.33329236E-08  3.33329236E-08  3.33329236E-08  3.33329236E-08  3.33329236E-08  3.33329236E-08  3.33329236E-08  3.33329236E-08
      3.33329236E-08  3.33329236E-08  3.33329236E-08  3.33329236E-08  3.33329236E-08  3.33329236E-08  3.33329236E-08  3.33329236E-08  3.33329236E-08  3.33329236E-08  3.33329236E-08  3.33329236E-08  3.33329236E-08  3.33329236E-08  3.33329236E-08  3.33329236E-08  3.33329236E-08  3.33329236E-08  3.33329236E-08  3.33329236E-08  3.33329236E-08  3.33329236E-08  3.33329236E-08  3.33329236E-08  3.33329236E-08  3.33329236E-08  3.33329236E-08  3.33329236E-08  3.33329236E-08  3.33329236E-08  3.33329236E-08  3.33329236E-08  3.33329236E-08  3.33329236E-08  3.33329236E-08  3.33329236E-08  3.33329236E-08  3.33329236E-08  3.33329236E-08  3.33329236E-08  3.33329236E-08  3.33329236E-08
      3.33329236E-08  3.33329236E-08  3.33329236E-08  3.33329236E-08  3.33329236E-08  3.33329236E-08  3.33329236E-08  3.33329236E-08  3.33329236E-08  3.33329236E-08  3.33329236E-08  3.33329236E-08  3.33329236E-08  3.33329236E-08  3.33329236E-08  3.33329236E-08  3.33329236E-08  3.33329236E-08  3.33329236E-08  3.33329236E-08  3.33329236E-08  3.33329236E-08  3.33329236E-08  3.33329236E-08  3.33329236E-08  3.33329236E-08  3.33329236E-08  3.33329236E-08  3.33329236E-08  3.33329236E-08  3.33329236E-08  3.33329236E-08  3.33329236E-08  3.33329236E-08  3.33329236E-08  3.33329236E-08  3.33329236E-08  3.33329236E-08  3.33329236E-08  3.33329236E-08  3.33329236E-08  3.33329236E-08
      3.33329236E-08  3.33329236E-08  3.33329236E-08  3.33329236E-08  3.33329236E-08  3.33329236E-08  3.33329236E-08  3.33329236E-08  3.33329236E-08  3.33329236E-08  3.33329236E-08  3.33329236E-08  3.33329236E-08  3.33329236E-08  3.33329236E-08  3.33329236E-08  3.33329236E-08  3.33329236E-08  3.33329236E-08  3.33329236E-08  3.33329236E-08  3.33329236E-08  3.33329236E-08  3.33329236E-08  3.33329236E-08  3.33329236E-08  3.33329236E-08  3.33329236E-08  3.33329236E-08  3.33329236E-08  3.33329236E-08  3.33329236E-08  3.33329236E-08  3.33329236E-08  3.33329236E-08  3.33329236E-08  3.33329236E-08  3.33329236E-08  3.33329236E-08  3.33329236E-08  3.33329236E-08  3.33329236E-08
      3.33329236E-08  3.33329236E-08  3.33329236E-08  3.33329236E-08  3.33329236E-08  3.33329236E-08  3.33329236E-08  3.33329236E-08  3.33329236E-08  3.33329236E-08  3.33329236E-08  3.33329236E-08  3.33329236E-08  3.33329236E-08  3.33329236E-08  3.33329236E-08  3.33329236E-08  3.33329236E-08  3.33329236E-08  3.33329236E-08  3.33329236E-08  3.33329236E-08  3.33329236E-08  3.33329236E-08  3.33329236E-08  3.33329236E-08  3.33329236E-08  3.33329236E-08  3.33329236E-08  3.33329236E-08  3.33329236E-08  3.33329236E-08  3.33329236E-08  3.33329236E-08  3.33329236E-08  3.33329236E-08  3.33329236E-08  3.33329236E-08  3.33329236E-08  3.33329236E-08  3.33329236E-08  3.33329236E-08
      3.33329236E-08  3.33329236E-08  3.33329236E-08  3.33329236E-08  3.33329236E-08  3.33329236E-08  3.33329236E-08  3.33329236E-08  3.33329236E-08  3.33329236E-08  3.33329236E-08  3.33329236E-08  3.33329236E-08  3.33329236E-08  3.33329236E-08  3.33329236E-08  3.33329236E-08  3.33329236E-08  3.33329236E-08  3.33329236E-08  3.33329236E-08  3.33329236E-08  3.33329236E-08  3.33329236E-08  3.33329236E-08  3.33329236E-08  3.33329236E-08  3.33329236E-08  3.33329236E-08  3.33329236E-08  3.33329236E-08  3.33329236E-08  3.33329236E-08  3.33329236E-08  3.33329236E-08  3.33329236E-08  3.33329236E-08  3.33329236E-08  3.33329236E-08  3.33329236E-08  3.33329236E-08  3.33329236E-08
      3.33329236E-08  3.33329236E-08  3.33329236E-08  3.33329236E-08  3.33329236E-08  3.33329236E-08  3.33329236E-08  3.33329236E-08  3.33329236E-08  3.33329236E-08  3.33329236E-08  3.33329236E-08  3.33329236E-08  3.33329236E-08  3.33329236E-08  3.33329236E-08  3.33329236E-08  3.33329236E-08  3.33329236E-08  3.33329236E-08  3.33329236E-08  3.33329236E-08  3.33329236E-08  3.33329236E-08  3.33329236E-08  3.33329236E-08  3.33329236E-08  3.33329236E-08  3.33329236E-08  3.33329236E-08  3.33329236E-08  3.33329236E-08  3.33329236E-08  3.33329236E-08  3.33329236E-08  3.33329236E-08  3.33329236E-08  3.33329236E-08  3.33329236E-08  3.33329236E-08  3.33329236E-08  3.33329236E-08
      3.33329236E-08  3.33329236E-08  3.33329236E-08  3.33329236E-08  3.33329236E-08  3.33329236E-08  3.33329236E-08  3.33329236E-08  3.33329236E-08  3.33329236E-08  3.33329236E-08  3.33329236E-08  3.33329236E-08  3.33329236E-08  3.33329236E-08  3.33329236E-08  3.33329236E-08  3.33329236E-08  3.33329236E-08  3.33329236E-08  3.33329236E-08  3.33329236E-08  3.33329236E-08  3.33329236E-08  3.33329236E-08  3.33329236E-08  3.33329236E-08  3.33329236E-08  3.33329236E-08  3.33329236E-08  3.33329236E-08  3.33329236E-08  3.33329236E-08  3.33329236E-08  3.33329236E-08  3.33329236E-08  3.33329236E-08  3.33329236E-08  3.33329236E-08  3.33329236E-08  3.33329236E-08  3.33329236E-08
      3.33329236E-08  3.33329236E-08  3.33329236E-08  3.33329236E-08  3.33329236E-08  3.33329236E-08  3.33329236E-08  3.33329236E-08  3.33329236E-08  3.33329236E-08  3.33329236E-08  3.33329236E-08  3.33329236E-08  3.33329236E-08  3.33329236E-08  3.33329236E-08  3.33329236E-08  3.33329236E-08  3.33329236E-08  3.33329236E-08  3.33329236E-08  3.33329236E-08  3.33329236E-08  3.33329236E-08  3.33329236E-08  3.33329236E-08  3.33329236E-08  3.33329236E-08  3.33329236E-08  3.33329236E-08  3.33329236E-08  3.33329236E-08  3.33329236E-08  3.33329236E-08  3.33329236E-08  3.33329236E-08  3.33329236E-08  3.33329236E-08  3.33329236E-08  3.33329236E-08  3.33329236E-08  3.33329236E-08
      3.33329236E-08  3.33329236E-08  3.33329236E-08  3.33329236E-08  3.33329236E-08  3.33329236E-08  3.33329236E-08  3.33329236E-08  3.33329236E-08  3.33329236E-08  3.33329236E-08  3.33329236E-08  3.33329236E-08  3.33329236E-08  3.33329236E-08  3.33329236E-08  3.33329236E-08  3.33329236E-08  3.33329236E-08  3.33329236E-08  3.33329236E-08  3.33329236E-08  3.33329236E-08  3.33329236E-08  3.33329236E-08  3.33329236E-08  3.33329236E-08  3.33329236E-08  3.33329236E-08  3.33329236E-08  3.33329236E-08  3.33329236E-08  3.33329236E-08  3.33329236E-08  3.33329236E-08  3.33329236E-08  3.33329236E-08  3.33329236E-08  3.33329236E-08  3.33329236E-08  3.33329236E-08  3.33329236E-08
      3.33329236E-08  3.33329236E-08  3.33329236E-08  3.33329236E-08  3.33329236E-08  3.33329236E-08  3.33329236E-08  3.33329236E-08  3.33329236E-08  3.33329236E-08  3.33329236E-08  3.33329236E-08  3.33329236E-08  3.33329236E-08  3.33329236E-08  3.33329236E-08  3.33329236E-08  3.33329236E-08  3.33329236E-08  3.33329236E-08  3.33329236E-08  3.33329236E-08  3.33329236E-08  3.33329236E-08  3.33329236E-08  3.33329236E-08  3.33329236E-08  3.33329236E-08  3.33329236E-08  3.33329236E-08  3.33329236E-08  3.33329236E-08  3.33329236E-08  3.33329236E-08  3.33329236E-08  3.33329236E-08  3.33329236E-08  3.33329236E-08  3.33329236E-08  3.33329236E-08  3.33329236E-08  3.33329236E-08
      3.33329236E-08  3.33329236E-08  3.33329236E-08  3.33329236E-08  3.33329236E-08  3.33329236E-08  3.33329236E-08  3.33329236E-08  3.33329236E-08  3.33329236E-08  3.33329236E-08  3.33329236E-08  3.33329236E-08  3.33329236E-08  3.33329236E-08  3.33329236E-08  3.33329236E-08  3.33329236E-08  3.33329236E-08  3.33329236E-08  3.33329236E-08  3.33329236E-08  3.33329236E-08  3.33329236E-08  3.33329236E-08  3.33329236E-08  3.33329236E-08  3.33329236E-08  3.33329236E-08  3.33329236E-08  3.33329236E-08  3.33329236E-08  3.33329236E-08  3.33329236E-08  3.33329236E-08  3.33329236E-08  3.33329236E-08  3.33329236E-08  3.33329236E-08  3.33329236E-08  3.33329236E-08  3.33329236E-08
      3.33329236E-08  3.33329236E-08  3.33329236E-08  3.33329236E-08  3.33329236E-08  3.33329236E-08  3.33329236E-08  3.33329236E-08  3.33329236E-08  3.33329236E-08  3.33329236E-08  3.33329236E-08  3.33329236E-08  3.33329236E-08  3.33329236E-08  3.33329236E-08  3.33329236E-08  3.33329236E-08  3.33329236E-08  3.33329236E-08  3.33329236E-08  3.33329236E-08  3.33329236E-08  3.33329236E-08  3.33329236E-08  3.33329236E-08  3.33329236E-08  3.33329236E-08  3.33329236E-08  3.33329236E-08  3.33329236E-08  3.33329236E-08  3.33329236E-08  3.33329236E-08  3.33329236E-08  3.33329236E-08  3.33329236E-08  3.33329236E-08  3.33329236E-08  3.33329236E-08  3.33329236E-08  3.33329236E-08
      3.33329236E-08  3.33329236E-08  3.33329236E-08  3.33329236E-08  3.33329236E-08  3.33329236E-08  3.33329236E-08  3.33329236E-08  3.33329236E-08  3.33329236E-08  3.33329236E-08  3.33329236E-08  3.33329236E-08  3.33329236E-08  3.33329236E-08  3.33329236E-08  3.33329236E-08  3.33329236E-08  3.33329236E-08  3.33329236E-08  3.33329236E-08  3.33329236E-08  3.33329236E-08  3.33329236E-08  3.33329236E-08  3.33329236E-08  3.33329236E-08  3.33329236E-08  3.33329236E-08  3.33329236E-08  3.33329236E-08  3.33329236E-08  3.33329236E-08  3.33329236E-08  3.33329236E-08  3.33329236E-08  3.33329236E-08  3.33329236E-08  3.33329236E-08  3.33329236E-08  3.33329236E-08  3.33329236E-08
      3.33329236E-08  3.33329236E-08  3.33329236E-08  3.33329236E-08  3.33329236E-08  3.33329236E-08  3.33329236E-08  3.33329236E-08  3.33329236E-08  3.33329236E-08  3.33329236E-08  3.33329236E-08  3.33329236E-08  3.33329236E-08  3.33329236E-08  3.33329236E-08  3.33329236E-08  3.33329236E-08  3.33329236E-08  3.33329236E-08  3.33329236E-08  3.33329236E-08  3.33329236E-08  3.33329236E-08  3.33329236E-08  3.33329236E-08  3.33329236E-08  3.33329236E-08  3.33329236E-08  3.33329236E-08  3.33329236E-08  3.33329236E-08  3.33329236E-08  3.33329236E-08  3.33329236E-08  3.33329236E-08  3.33329236E-08  3.33329236E-08  3.33329236E-08  3.33329236E-08  3.33329236E-08  3.33329236E-08
      3.33329236E-08  3.33329236E-08  3.33329236E-08  3.33329236E-08  3.33329236E-08  3.33329236E-08  3.33329236E-08  3.33329236E-08  3.33329236E-08  3.33329236E-08  3.33329236E-08  3.33329236E-08  3.33329236E-08  3.33329236E-08  3.33329236E-08  3.33329236E-08  3.33329236E-08  3.33329236E-08  3.33329236E-08  3.33329236E-08  3.33329236E-08  3.33329236E-08  3.33329236E-08  3.33329236E-08  3.33329236E-08  3.33329236E-08  3.33329236E-08  3.33329236E-08  3.33329236E-08  3.33329236E-08  3.33329236E-08  3.33329236E-08  3.33329236E-08  3.33329236E-08  3.33329236E-08  3.33329236E-08  3.33329236E-08  3.33329236E-08  3.33329236E-08  3.33329236E-08  3.33329236E-08  3.33329236E-08
      3.33329236E-08  3.33329236E-08  3.33329236E-08  3.33329236E-08  3.33329236E-08  3.33329236E-08  3.33329236E-08  3.33329236E-08  3.33329236E-08  3.33329236E-08  3.33329236E-08  3.33329236E-08  3.33329236E-08  3.33329236E-08  3.33329236E-08  3.33329236E-08  3.33329236E-08  3.33329236E-08  3.33329236E-08  3.33329236E-08  3.33329236E-08  3.33329236E-08  3.33329236E-08  3.33329236E-08  3.33329236E-08  3.33329236E-08  3.33329236E-08  3.33329236E-08  3.33329236E-08  3.33329236E-08  3.33329236E-08  3.33329236E-08  3.33329236E-08  3.33329236E-08  3.33329236E-08  3.33329236E-08  3.33329236E-08  3.33329236E-08  3.33329236E-08  3.33329236E-08  3.33329236E-08  3.33329236E-08
      3.33329236E-08  3.33329236E-08  3.33329236E-08  3.33329236E-08  3.33329236E-08  3.33329236E-08  3.33329236E-08  3.33329236E-08  3.33329236E-08  3.33329236E-08  3.33329236E-08  3.33329236E-08  3.33329236E-08  3.33329236E-08  3.33329236E-08  3.33329236E-08  3.33329236E-08  3.33329236E-08  3.33329236E-08  3.33329236E-08  3.33329236E-08  3.33329236E-08  3.33329236E-08  3.33329236E-08  3.33329236E-08  3.33329236E-08  3.33329236E-08  3.33329236E-08  3.33329236E-08  3.33329236E-08  3.33329236E-08  3.33329236E-08  3.33329236E-08  3.33329236E-08  3.33329236E-08  3.33329236E-08  3.33329236E-08  3.33329236E-08  3.33329236E-08  3.33329236E-08  3.33329236E-08  3.33329236E-08
      3.33329236E-08  3.33329236E-08  3.33329236E-08  3.33329236E-08  3.33329236E-08  3.33329236E-08  3.33329236E-08  3.33329236E-08  3.33329236E-08  3.33329236E-08  3.33329236E-08  3.33329236E-08  3.33329236E-08  3.33329236E-08  3.33329236E-08  3.33329236E-08  3.33329236E-08  3.33329236E-08  3.33329236E-08  3.33329236E-08  3.33329236E-08  3.33329236E-08  3.33329236E-08  3.33329236E-08  3.33329236E-08  3.33329236E-08  3.33329236E-08  3.33329236E-08  3.33329236E-08  3.33329236E-08  3.33329236E-08  3.33329236E-08  3.33329236E-08  3.33329236E-08  3.33329236E-08  3.33329236E-08  3.33329236E-08  3.33329236E-08  3.33329236E-08  3.33329236E-08  3.33329236E-08  3.33329236E-08
      3.33329236E-08  3.33329236E-08  3.33329236E-08  3.33329236E-08  3.33329236E-08  3.33329236E-08  3.33329236E-08  3.33329236E-08  3.33329236E-08  3.33329236E-08  3.33329236E-08  3.33329236E-08  3.33329236E-08  3.33329236E-08  3.33329236E-08  3.33329236E-08  3.33329236E-08  3.33329236E-08  3.33329236E-08  3.33329236E-08  3.33329236E-08  3.33329236E-08  3.33329236E-08  3.33329236E-08  3.33329236E-08  3.33329236E-08  3.33329236E-08  3.33329236E-08  3.33329236E-08  3.33329236E-08  3.33329236E-08  3.33329236E-08  3.33329236E-08  3.33329236E-08  3.33329236E-08  3.33329236E-08  3.33329236E-08  3.33329236E-08  3.33329236E-08  3.33329236E-08  3.33329236E-08  3.33329236E-08
    INTERNAL  FACTOR  1.0
      5.76980911E-05  4.11151118E-05  8.62188589E-05  1.01394983E-04  7.53611586E-05  2.96133168E-05  2.10479983E-05  1.07579020E-05  1.05611115E-06  1.52703591E-06  4.01064142E-05  8.39582950E-05  5.44073708E-06  2.56074195E-07  7.68851139E-07  1.18139026E-05  5.59065468E-05  1.02274369E-05  2.57373903E-07  5.52499421E-07  8.39700927E-08  1.41305697E-06  6.36842372E-05  1.08442938E-04  8.99988837E-05  7.94933104E-05  8.21292600E-05  4.33297954E-05  1.44821455E-05  2.72472987E-05  3.21023010E-05  3.15987752E-09  2.02865904E-08  1.58907726E-07  5.84617884E-08  7.04659647E-07  1.86804119E-06  1.48729483E-04  2.84482129E-04  1.39252455E-04  5.12267660E-05  1.65330107E-05