# File generated by Flopy version 3.9.1 on 01/21/2025 at 12:01:12.
BEGIN options
  SAVE_FLOWS
  SAVE_SPECIFIC_DISCHARGE
  SAVE_SATURATION
END options

BEGIN griddata
  icelltype
    CONSTANT  0
  k  LAYERED
    INTERNAL  FACTOR  1.0
      3.05397320E-08  3.05397320E-08  3.05397320E-08  3.05397320E-08  3.05397320E-08  3.05397320E-08  3.05397320E-08  3.05397320E-08  3.05397320E-08  3.05397320E-08  3.05397320E-08  3.05397320E-08  3.05397320E-08  3.05397320E-08  3.05397320E-08  3.05397320E-08  3.05397320E-08  3.05397320E-08  3.05397320E-08  3.05397320E-08  3.05397320E-08  3.05397320E-08  3.05397320E-08  3.05397320E-08  3.05397320E-08  3.05397320E-08  3.05397320E-08  3.05397320E-08  3.05397320E-08  3.05397320E-08  3.05397320E-08  3.05397320E-08  3.05397320E-08  3.05397320E-08  3.05397320E-08  3.05397320E-08  3.05397320E-08  3.05397320E-08  3.05397320E-08  3.05397320E-08
      3.05397320E-08  3.05397320E-08  3.05397320E-08  3.05397320E-08  3.05397320E-08  3.05397320E-08  3.05397320E-08  3.05397320E-08  3.05397320E-08  3.05397320E-08  3.05397320E-08  3.05397320E-08  3.05397320E-08  3.05397320E-08  3.05397320E-08  3.05397320E-08  3.05397320E-08  3.05397320E-08  3.05397320E-08  3.05397320E-08  3.05397320E-08  3.05397320E-08  3.05397320E-08  3.05397320E-08  3.05397320E-08  3.05397320E-08  3.05397320E-08  3.05397320E-08  3.05397320E-08  3.05397320E-08  3.05397320E-08  3.05397320E-08  3.05397320E-08  3.05397320E-08  3.05397320E-08  3.05397320E-08  3.05397320E-08  3.05397320E-08  3.05397320E-08  3.05397320E-08
      3.05397320E-08  3.05397320E-08  3.05397320E-08  3.05397320E-08  3.05397320E-08  3.05397320E-08  3.05397320E-08  3.05397320E-08  3.05397320E-08  3.05397320E-08  3.05397320E-08  3.05397320E-08  3.05397320E-08  3.05397320E-08  3.05397320E-08  3.05397320E-08  3.05397320E-08  3.05397320E-08  3.05397320E-08  3.05397320E-08  3.05397320E-08  3.05397320E-08  3.05397320E-08  3.05397320E-08  3.05397320E-08  3.05397320E-08  3.05397320E-08  3.05397320E-08  3.05397320E-08  3.05397320E-08  3.05397320E-08  3.05397320E-08  3.05397320E-08  3.05397320E-08  3.05397320E-08  3.05397320E-08  3.05397320E-08  3.05397320E-08  3.05397320E-08  3.05397320E-08
      3.05397320E-08  3.05397320E-08  3.05397320E-08  3.05397320E-08  3.05397320E-08  3.05397320E-08  3.05397320E-08  3.05397320E-08  3.05397320E-08  3.05397320E-08  3.05397320E-08  3.05397320E-08  3.05397320E-08  3.05397320E-08  3.05397320E-08  3.05397320E-08  3.05397320E-08  3.05397320E-08  3.05397320E-08  3.05397320E-08  3.05397320E-08  3.05397320E-08  3.05397320E-08  3.05397320E-08  3.05397320E-08  3.05397320E-08  3.05397320E-08  3.05397320E-08  3.05397320E-08  3.05397320E-08  3.05397320E-08  3.05397320E-08  3.05397320E-08  3.05397320E-08  3.05397320E-08  3.05397320E-08  3.05397320E-08  3.05397320E-08  3.05397320E-08  3.05397320E-08
      3.05397320E-08  3.05397320E-08  3.05397320E-08  3.05397320E-08  3.05397320E-08  3.05397320E-08  3.05397320E-08  3.05397320E-08  3.05397320E-08  3.05397320E-08  3.05397320E-08  3.05397320E-08  3.05397320E-08  3.05397320E-08  3.05397320E-08  3.05397320E-08  3.05397320E-08  3.05397320E-08  3.05397320E-08  3.05397320E-08  3.05397320E-08  3.05397320E-08  3.05397320E-08  3.05397320E-08  3.05397320E-08  3.05397320E-08  3.05397320E-08  3.05397320E-08  3.05397320E-08  3.05397320E-08  3.05397320E-08  3.05397320E-08  3.05397320E-08  3.05397320E-08  3.05397320E-08  3.05397320E-08  3.05397320E-08  3.05397320E-08  3.05397320E-08  3.05397320E-08
      3.05397320E-08  3.05397320E-08  3.05397320E-08  3.05397320E-08  3.05397320E-08  3.05397320E-08  3.05397320E-08  3.05397320E-08  3.05397320E-08  3.05397320E-08  3.05397320E-08  3.05397320E-08  3.05397320E-08  3.05397320E-08  3.05397320E-08  3.05397320E-08  3.05397320E-08  3.05397320E-08  3.05397320E-08  3.05397320E-08  3.05397320E-08  3.05397320E-08  3.05397320E-08  3.05397320E-08  3.05397320E-08  3.05397320E-08  3.05397320E-08  3.05397320E-08  3.05397320E-08  3.05397320E-08  3.05397320E-08  3.05397320E-08  3.05397320E-08  3.05397320E-08  3.05397320E-08  3.05397320E-08  3.05397320E-08  3.05397320E-08  3.05397320E-08  3.05397320E-08
      3.05397320E-08  3.05397320E-08  3.05397320E-08  3.05397320E-08  3.05397320E-08  3.05397320E-08  3.05397320E-08  3.05397320E-08  3.05397320E-08  3.05397320E-08  3.05397320E-08  3.05397320E-08  3.05397320E-08  3.05397320E-08  3.05397320E-08  3.05397320E-08  3.05397320E-08  3.05397320E-08  3.05397320E-08  3.05397320E-08  3.05397320E-08  3.05397320E-08  3.05397320E-08  3.05397320E-08  3.05397320E-08  3.05397320E-08  3.05397320E-08  3.05397320E-08  3.05397320E-08  3.05397320E-08  3.05397320E-08  3.05397320E-08  3.05397320E-08  3.05397320E-08  3.05397320E-08  3.05397320E-08  3.05397320E-08  3.05397320E-08  3.05397320E-08  3.05397320E-08
      3.05397320E-08  3.05397320E-08  3.05397320E-08  3.05397320E-08  3.05397320E-08  3.05397320E-08  3.05397320E-08  3.05397320E-08  3.05397320E-08  3.05397320E-08  3.05397320E-08  3.05397320E-08  3.05397320E-08  3.05397320E-08  3.05397320E-08  3.05397320E-08  3.05397320E-08  3.05397320E-08  3.05397320E-08  3.05397320E-08  3.05397320E-08  3.05397320E-08  3.05397320E-08  3.05397320E-08  3.05397320E-08  3.05397320E-08  3.05397320E-08  3.05397320E-08  3.05397320E-08  3.05397320E-08  3.05397320E-08  3.05397320E-08  3.05397320E-08  3.05397320E-08  3.05397320E-08  3.05397320E-08  3.05397320E-08  3.05397320E-08  3.05397320E-08  3.05397320E-08
      3.05397320E-08  3.05397320E-08  3.05397320E-08  3.05397320E-08  3.05397320E-08  3.05397320E-08  3.05397320E-08  3.05397320E-08  3.05397320E-08  3.05397320E-08  3.05397320E-08  3.05397320E-08  3.05397320E-08  3.05397320E-08  3.05397320E-08  3.05397320E-08  3.05397320E-08  3.05397320E-08  3.05397320E-08  3.05397320E-08  3.05397320E-08  3.05397320E-08  3.05397320E-08  3.05397320E-08  3.05397320E-08  3.05397320E-08  3.05397320E-08  3.05397320E-08  3.05397320E-08  3.05397320E-08  3.05397320E-08  3.05397320E-08  3.05397320E-08  3.05397320E-08  3.05397320E-08  3.05397320E-08  3.05397320E-08  3.05397320E-08  3.05397320E-08  3.05397320E-08
      3.05397320E-08  3.05397320E-08  3.05397320E-08  3.05397320E-08  3.05397320E-08  3.05397320E-08  3.05397320E-08  3.05397320E-08  3.05397320E-08  3.05397320E-08  3.05397320E-08  3.05397320E-08  3.05397320E-08  3.05397320E-08  3.05397320E-08  3.05397320E-08  3.05397320E-08  3.05397320E-08  3.05397320E-08  3.05397320E-08  3.05397320E-08  3.05397320E-08  3.05397320E-08  3.05397320E-08  3.05397320E-08  3.05397320E-08  3.05397320E-08  3.05397320E-08  3.05397320E-08  3.05397320E-08  3.05397320E-08  3.05397320E-08  3.05397320E-08  3.05397320E-08  3.05397320E-08  3.05397320E-08  3.05397320E-08  3.05397320E-08  3.05397320E-08  3.05397320E-08
      3.05397320E-08  3.05397320E-08  3.05397320E-08  3.05397320E-08  3.05397320E-08  3.05397320E-08  3.05397320E-08  3.05397320E-08  3.05397320E-08  3.05397320E-08  3.05397320E-08  3.05397320E-08  3.05397320E-08  3.05397320E-08  3.05397320E-08  3.05397320E-08  3.05397320E-08  3.05397320E-08  3.05397320E-08  3.05397320E-08  3.05397320E-08  3.05397320E-08  3.05397320E-08  3.05397320E-08  3.05397320E-08  3.05397320E-08  3.05397320E-08  3.05397320E-08  3.05397320E-08  3.05397320E-08  3.05397320E-08  3.05397320E-08  3.05397320E-08  3.05397320E-08  3.05397320E-08  3.05397320E-08  3.05397320E-08  3.05397320E-08  3.05397320E-08  3.05397320E-08
      3.05397320E-08  3.05397320E-08  3.05397320E-08  3.05397320E-08  3.05397320E-08  3.05397320E-08  3.05397320E-08  3.05397320E-08  3.05397320E-08  3.05397320E-08  3.05397320E-08  3.05397320E-08  3.05397320E-08  3.05397320E-08  3.05397320E-08  3.05397320E-08  3.05397320E-08  3.05397320E-08  3.05397320E-08  3.05397320E-08  3.05397320E-08  3.05397320E-08  3.05397320E-08  3.05397320E-08  3.05397320E-08  3.05397320E-08  3.05397320E-08  3.05397320E-08  3.05397320E-08  3.05397320E-08  3.05397320E-08  3.05397320E-08  3.05397320E-08  3.05397320E-08  3.05397320E-08  3.05397320E-08  3.05397320E-08  3.05397320E-08  3.05397320E-08  3.05397320E-08
      3.05397320E-08  3.05397320E-08  3.05397320E-08  3.05397320E-08  3.05397320E-08  3.05397320E-08  3.05397320E-08  3.05397320E-08  3.05397320E-08  3.05397320E-08  3.05397320E-08  3.05397320E-08  3.05397320E-08  3.05397320E-08  3.05397320E-08  3.05397320E-08  3.05397320E-08  3.05397320E-08  3.05397320E-08  3.05397320E-08  3.05397320E-08  3.05397320E-08  3.05397320E-08  3.05397320E-08  3.05397320E-08  3.05397320E-08  3.05397320E-08  3.05397320E-08  3.05397320E-08  3.05397320E-08  3.05397320E-08  3.05397320E-08  3.05397320E-08  3.05397320E-08  3.05397320E-08  3.05397320E-08  3.05397320E-08  3.05397320E-08  3.05397320E-08  3.05397320E-08
      3.05397320E-08  3.05397320E-08  3.05397320E-08  3.05397320E-08  3.05397320E-08  3.05397320E-08  3.05397320E-08  3.05397320E-08  3.05397320E-08  3.05397320E-08  3.05397320E-08  3.05397320E-08  3.05397320E-08  3.05397320E-08  3.05397320E-08  3.05397320E-08  3.05397320E-08  3.05397320E-08  3.05397320E-08  3.05397320E-08  3.05397320E-08  3.05397320E-08  3.05397320E-08  3.05397320E-08  3.05397320E-08  3.05397320E-08  3.05397320E-08  3.05397320E-08  3.05397320E-08  3.05397320E-08  3.05397320E-08  3.05397320E-08  3.05397320E-08  3.05397320E-08  3.05397320E-08  3.05397320E-08  3.05397320E-08  3.05397320E-08  3.05397320E-08  3.05397320E-08
      3.05397320E-08  3.05397320E-08  3.05397320E-08  3.05397320E-08  3.05397320E-08  3.05397320E-08  3.05397320E-08  3.05397320E-08  3.05397320E-08  3.05397320E-08  3.05397320E-08  3.05397320E-08  3.05397320E-08  3.05397320E-08  3.05397320E-08  3.05397320E-08  3.05397320E-08  3.05397320E-08  3.05397320E-08  3.05397320E-08  3.05397320E-08  3.05397320E-08  3.05397320E-08  3.05397320E-08  3.05397320E-08  3.05397320E-08  3.05397320E-08  3.05397320E-08  3.05397320E-08  3.05397320E-08  3.05397320E-08  3.05397320E-08  3.05397320E-08  3.05397320E-08  3.05397320E-08  3.05397320E-08  3.05397320E-08  3.05397320E-08  3.05397320E-08  3.05397320E-08
      3.05397320E-08  3.05397320E-08  3.05397320E-08  3.05397320E-08  3.05397320E-08  3.05397320E-08  3.05397320E-08  3.05397320E-08  3.05397320E-08  3.05397320E-08  3.05397320E-08  3.05397320E-08  3.05397320E-08  3.05397320E-08  3.05397320E-08  3.05397320E-08  3.05397320E-08  3.05397320E-08  3.05397320E-08  3.05397320E-08  3.05397320E-08  3.05397320E-08  3.05397320E-08  3.05397320E-08  3.05397320E-08  3.05397320E-08  3.05397320E-08  3.05397320E-08  3.05397320E-08  3.05397320E-08  3.05397320E-08  3.05397320E-08  3.05397320E-08  3.05397320E-08  3.05397320E-08  3.05397320E-08  3.05397320E-08  3.05397320E-08  3.05397320E-08  3.05397320E-08
      3.05397320E-08  3.05397320E-08  3.05397320E-08  3.05397320E-08  3.05397320E-08  3.05397320E-08  3.05397320E-08  3.05397320E-08  3.05397320E-08  3.05397320E-08  3.05397320E-08  3.05397320E-08  3.05397320E-08  3.05397320E-08  3.05397320E-08  3.05397320E-08  3.05397320E-08  3.05397320E-08  3.05397320E-08  3.05397320E-08  3.05397320E-08  3.05397320E-08  3.05397320E-08  3.05397320E-08  3.05397320E-08  3.05397320E-08  3.05397320E-08  3.05397320E-08  3.05397320E-08  3.05397320E-08  3.05397320E-08  3.05397320E-08  3.05397320E-08  3.05397320E-08  3.05397320E-08  3.05397320E-08  3.05397320E-08  3.05397320E-08  3.05397320E-08  3.05397320E-08
      3.05397320E-08  3.05397320E-08  3.05397320E-08  3.05397320E-08  3.05397320E-08  3.05397320E-08  3.05397320E-08  3.05397320E-08  3.05397320E-08  3.05397320E-08  3.05397320E-08  3.05397320E-08  3.05397320E-08  3.05397320E-08  3.05397320E-08  3.05397320E-08  3.05397320E-08  3.05397320E-08  3.05397320E-08  3.05397320E-08  3.05397320E-08  3.05397320E-08  3.05397320E-08  3.05397320E-08  3.05397320E-08  3.05397320E-08  3.05397320E-08  3.05397320E-08  3.05397320E-08  3.05397320E-08  3.05397320E-08  3.05397320E-08  3.05397320E-08  3.05397320E-08  3.05397320E-08  3.05397320E-08  3.05397320E-08  3.05397320E-08  3.05397320E-08  3.05397320E-08
      3.05397320E-08  3.05397320E-08  3.05397320E-08  3.05397320E-08  3.05397320E-08  3.05397320E-08  3.05397320E-08  3.05397320E-08  3.05397320E-08  3.05397320E-08  3.05397320E-08  3.05397320E-08  3.05397320E-08  3.05397320E-08  3.05397320E-08  3.05397320E-08  3.05397320E-08  3.05397320E-08  3.05397320E-08  3.05397320E-08  3.05397320E-08  3.05397320E-08  3.05397320E-08  3.05397320E-08  3.05397320E-08  3.05397320E-08  3.05397320E-08  3.05397320E-08  3.05397320E-08  3.05397320E-08  3.05397320E-08  3.05397320E-08  3.05397320E-08  3.05397320E-08  3.05397320E-08  3.05397320E-08  3.05397320E-08  3.05397320E-08  3.05397320E-08  3.05397320E-08
      3.05397320E-08  3.05397320E-08  3.05397320E-08  3.05397320E-08  3.05397320E-08  3.05397320E-08  3.05397320E-08  3.05397320E-08  3.05397320E-08  3.05397320E-08  3.05397320E-08  3.05397320E-08  3.05397320E-08  3.05397320E-08  3.05397320E-08  3.05397320E-08  3.05397320E-08  3.05397320E-08  3.05397320E-08  3.05397320E-08  3.05397320E-08  3.05397320E-08  3.05397320E-08  3.05397320E-08  3.05397320E-08  3.05397320E-08  3.05397320E-08  3.05397320E-08  3.05397320E-08  3.05397320E-08  3.05397320E-08  3.05397320E-08  3.05397320E-08  3.05397320E-08  3.05397320E-08  3.05397320E-08  3.05397320E-08  3.05397320E-08  3.05397320E-08  3.05397320E-08
      3.05397320E-08  3.05397320E-08  3.05397320E-08  3.05397320E-08  3.05397320E-08  3.05397320E-08  3.05397320E-08  3.05397320E-08  3.05397320E-08  3.05397320E-08  3.05397320E-08  3.05397320E-08  3.05397320E-08  3.05397320E-08  3.05397320E-08  3.05397320E-08  3.05397320E-08  3.05397320E-08  3.05397320E-08  3.05397320E-08  3.05397320E-08  3.05397320E-08  3.05397320E-08  3.05397320E-08  3.05397320E-08  3.05397320E-08  3.05397320E-08  3.05397320E-08  3.05397320E-08  3.05397320E-08  3.05397320E-08  3.05397320E-08  3.05397320E-08  3.05397320E-08  3.05397320E-08  3.05397320E-08  3.05397320E-08  3.05397320E-08  3.05397320E-08  3.05397320E-08
      3.05397320E-08  3.05397320E-08  3.05397320E-08  3.05397320E-08  3.05397320E-08  3.05397320E-08  3.05397320E-08  3.05397320E-08  3.05397320E-08  3.05397320E-08  3.05397320E-08  3.05397320E-08  3.05397320E-08  3.05397320E-08  3.05397320E-08  3.05397320E-08  3.05397320E-08  3.05397320E-08  3.05397320E-08  3.05397320E-08  3.05397320E-08  3.05397320E-08  3.05397320E-08  3.05397320E-08  3.05397320E-08  3.05397320E-08  3.05397320E-08  3.05397320E-08  3.05397320E-08  3.05397320E-08  3.05397320E-08  3.05397320E-08  3.05397320E-08  3.05397320E-08  3.05397320E-08  3.05397320E-08  3.05397320E-08  3.05397320E-08  3.05397320E-08  3.05397320E-08
      3.05397320E-08  3.05397320E-08  3.05397320E-08  3.05397320E-08  3.05397320E-08  3.05397320E-08  3.05397320E-08  3.05397320E-08  3.05397320E-08  3.05397320E-08  3.05397320E-08  3.05397320E-08  3.05397320E-08  3.05397320E-08  3.05397320E-08  3.05397320E-08  3.05397320E-08  3.05397320E-08  3.05397320E-08  3.05397320E-08  3.05397320E-08  3.05397320E-08  3.05397320E-08  3.05397320E-08  3.05397320E-08  3.05397320E-08  3.05397320E-08  3.05397320E-08  3.05397320E-08  3.05397320E-08  3.05397320E-08  3.05397320E-08  3.05397320E-08  3.05397320E-08  3.05397320E-08  3.05397320E-08  3.05397320E-08  3.05397320E-08  3.05397320E-08  3.05397320E-08
      3.05397320E-08  3.05397320E-08  3.05397320E-08  3.05397320E-08  3.05397320E-08  3.05397320E-08  3.05397320E-08  3.05397320E-08  3.05397320E-08  3.05397320E-08  3.05397320E-08  3.05397320E-08  3.05397320E-08  3.05397320E-08  3.05397320E-08  3.05397320E-08  3.05397320E-08  3.05397320E-08  3.05397320E-08  3.05397320E-08  3.05397320E-08  3.05397320E-08  3.05397320E-08  3.05397320E-08  3.05397320E-08  3.05397320E-08  3.05397320E-08  3.05397320E-08  3.05397320E-08  3.05397320E-08  3.05397320E-08  3.05397320E-08  3.05397320E-08  3.05397320E-08  3.05397320E-08  3.05397320E-08  3.05397320E-08  3.05397320E-08  3.05397320E-08  3.05397320E-08
      3.05397320E-08  3.05397320E-08  3.05397320E-08  3.05397320E-08  3.05397320E-08  3.05397320E-08  3.05397320E-08  3.05397320E-08  3.05397320E-08  3.05397320E-08  3.05397320E-08  3.05397320E-08  3.05397320E-08  3.05397320E-08  3.05397320E-08  3.05397320E-08  3.05397320E-08  3.05397320E-08  3.05397320E-08  3.05397320E-08  3.05397320E-08  3.05397320E-08  3.05397320E-08  3.05397320E-08  3.05397320E-08  3.05397320E-08  3.05397320E-08  3.05397320E-08  3.05397320E-08  3.05397320E-08  3.05397320E-08  3.05397320E-08  3.05397320E-08  3.05397320E-08  3.05397320E-08  3.05397320E-08  3.05397320E-08  3.05397320E-08  3.05397320E-08  3.05397320E-08
      3.05397320E-08  3.05397320E-08  3.05397320E-08  3.05397320E-08  3.05397320E-08  3.05397320E-08  3.05397320E-08  3.05397320E-08  3.05397320E-08  3.05397320E-08  3.05397320E-08  3.05397320E-08  3.05397320E-08  3.05397320E-08  3.05397320E-08  3.05397320E-08  3.05397320E-08  3.05397320E-08  3.05397320E-08  3.05397320E-08  3.05397320E-08  3.05397320E-08  3.05397320E-08  3.05397320E-08  3.05397320E-08  3.05397320E-08  3.05397320E-08  3.05397320E-08  3.05397320E-08  3.05397320E-08  3.05397320E-08  3.05397320E-08  3.05397320E-08  3.05397320E-08  3.05397320E-08  3.05397320E-08  3.05397320E-08  3.05397320E-08  3.05397320E-08  3.05397320E-08
      3.05397320E-08  3.05397320E-08  3.05397320E-08  3.05397320E-08  3.05397320E-08  3.05397320E-08  3.05397320E-08  3.05397320E-08  3.05397320E-08  3.05397320E-08  3.05397320E-08  3.05397320E-08  3.05397320E-08  3.05397320E-08  3.05397320E-08  3.05397320E-08  3.05397320E-08  3.05397320E-08  3.05397320E-08  3.05397320E-08  3.05397320E-08  3.05397320E-08  3.05397320E-08  3.05397320E-08  3.05397320E-08  3.05397320E-08  3.05397320E-08  3.05397320E-08  3.05397320E-08  3.05397320E-08  3.05397320E-08  3.05397320E-08  3.05397320E-08  3.05397320E-08  3.05397320E-08  3.05397320E-08  3.05397320E-08  3.05397320E-08  3.05397320E-08  3.05397320E-08
      3.05397320E-08  3.05397320E-08  3.05397320E-08  3.05397320E-08  3.05397320E-08  3.05397320E-08  3.05397320E-08  3.05397320E-08  3.05397320E-08  3.05397320E-08  3.05397320E-08  3.05397320E-08  3.05397320E-08  3.05397320E-08  3.05397320E-08  3.05397320E-08  3.05397320E-08  3.05397320E-08  3.05397320E-08  3.05397320E-08  3.05397320E-08  3.05397320E-08  3.05397320E-08  3.05397320E-08  3.05397320E-08  3.05397320E-08  3.05397320E-08  3.05397320E-08  3.05397320E-08  3.05397320E-08  3.05397320E-08  3.05397320E-08  3.05397320E-08  3.05397320E-08  3.05397320E-08  3.05397320E-08  3.05397320E-08  3.05397320E-08  3.05397320E-08  3.05397320E-08
      3.05397320E-08  3.05397320E-08  3.05397320E-08  3.05397320E-08  3.05397320E-08  3.05397320E-08  3.05397320E-08  3.05397320E-08  3.05397320E-08  3.05397320E-08  3.05397320E-08  3.05397320E-08  3.05397320E-08  3.05397320E-08  3.05397320E-08  3.05397320E-08  3.05397320E-08  3.05397320E-08  3.05397320E-08  3.05397320E-08  3.05397320E-08  3.05397320E-08  3.05397320E-08  3.05397320E-08  3.05397320E-08  3.05397320E-08  3.05397320E-08  3.05397320E-08  3.05397320E-08  3.05397320E-08  3.05397320E-08  3.05397320E-08  3.05397320E-08  3.05397320E-08  3.05397320E-08  3.05397320E-08  3.05397320E-08  3.05397320E-08  3.05397320E-08  3.05397320E-08
      3.05397320E-08  3.05397320E-08  3.05397320E-08  3.05397320E-08  3.05397320E-08  3.05397320E-08  3.05397320E-08  3.05397320E-08  3.05397320E-08  3.05397320E-08  3.05397320E-08  3.05397320E-08  3.05397320E-08  3.05397320E-08  3.05397320E-08  3.05397320E-08  3.05397320E-08  3.05397320E-08  3.05397320E-08  3.05397320E-08  3.05397320E-08  3.05397320E-08  3.05397320E-08  3.05397320E-08  3.05397320E-08  3.05397320E-08  3.05397320E-08  3.05397320E-08  3.05397320E-08  3.05397320E-08  3.05397320E-08  3.05397320E-08  3.05397320E-08  3.05397320E-08  3.05397320E-08  3.05397320E-08  3.05397320E-08  3.05397320E-08  3.05397320E-08  3.05397320E-08
      3.05397320E-08  3.05397320E-08  3.05397320E-08  3.05397320E-08  3.05397320E-08  3.05397320E-08  3.05397320E-08  3.05397320E-08  3.05397320E-08  3.05397320E-08  3.05397320E-08  3.05397320E-08  3.05397320E-08  3.05397320E-08  3.05397320E-08  3.05397320E-08  3.05397320E-08  3.05397320E-08  3.05397320E-08  3.05397320E-08  3.05397320E-08  3.05397320E-08  3.05397320E-08  3.05397320E-08  3.05397320E-08  3.05397320E-08  3.05397320E-08  3.05397320E-08  3.05397320E-08  3.05397320E-08  3.05397320E-08  3.05397320E-08  3.05397320E-08  3.05397320E-08  3.05397320E-08  3.05397320E-08  3.05397320E-08  3.05397320E-08  3.05397320E-08  3.05397320E-08
      3.05397320E-08  3.05397320E-08  3.05397320E-08  3.05397320E-08  3.05397320E-08  3.05397320E-08  3.05397320E-08  3.05397320E-08  3.05397320E-08  3.05397320E-08  3.05397320E-08  3.05397320E-08  3.05397320E-08  3.05397320E-08  3.05397320E-08  3.05397320E-08  3.05397320E-08  3.05397320E-08  3.05397320E-08  3.05397320E-08  3.05397320E-08  3.05397320E-08  3.05397320E-08  3.05397320E-08  3.05397320E-08  3.05397320E-08  3.05397320E-08  3.05397320E-08  3.05397320E-08  3.05397320E-08  3.05397320E-08  3.05397320E-08  3.05397320E-08  3.05397320E-08  3.05397320E-08  3.05397320E-08  3.05397320E-08  3.05397320E-08  3.05397320E-08  3.05397320E-08
      3.05397320E-08  3.05397320E-08  3.05397320E-08  3.05397320E-08  3.05397320E-08  3.05397320E-08  3.05397320E-08  3.05397320E-08  3.05397320E-08  3.05397320E-08  3.05397320E-08  3.05397320E-08  3.05397320E-08  3.05397320E-08  3.05397320E-08  3.05397320E-08  3.05397320E-08  3.05397320E-08  3.05397320E-08  3.05397320E-08  3.05397320E-08  3.05397320E-08  3.05397320E-08  3.05397320E-08  3.05397320E-08  3.05397320E-08  3.05397320E-08  3.05397320E-08  3.05397320E-08  3.05397320E-08  3.05397320E-08  3.05397320E-08  3.05397320E-08  3.05397320E-08  3.05397320E-08  3.05397320E-08  3.05397320E-08  3.05397320E-08  3.05397320E-08  3.05397320E-08
      3.05397320E-08  3.05397320E-08  3.05397320E-08  3.05397320E-08  3.05397320E-08  3.05397320E-08  3.05397320E-08  3.05397320E-08  3.05397320E-08  3.05397320E-08  3.05397320E-08  3.05397320E-08  3.05397320E-08  3.05397320E-08  3.05397320E-08  3.05397320E-08  3.05397320E-08  3.05397320E-08  3.05397320E-08  3.05397320E-08  3.05397320E-08  3.05397320E-08  3.05397320E-08  3.05397320E-08  3.05397320E-08  3.05397320E-08  3.05397320E-08  3.05397320E-08  3.05397320E-08  3.05397320E-08  3.05397320E-08  3.05397320E-08  3.05397320E-08  3.05397320E-08  3.05397320E-08  3.05397320E-08  3.05397320E-08  3.05397320E-08  3.05397320E-08  3.05397320E-08
      3.05397320E-08  3.05397320E-08  3.05397320E-08  3.05397320E-08  3.05397320E-08  3.05397320E-08  3.05397320E-08  3.05397320E-08  3.05397320E-08  3.05397320E-08  3.05397320E-08  3.05397320E-08  3.05397320E-08  3.05397320E-08  3.05397320E-08  3.05397320E-08  3.05397320E-08  3.05397320E-08  3.05397320E-08  3.05397320E-08  3.05397320E-08  3.05397320E-08  3.05397320E-08  3.05397320E-08  3.05397320E-08  3.05397320E-08  3.05397320E-08  3.05397320E-08  3.05397320E-08  3.05397320E-08  3.05397320E-08  3.05397320E-08  3.05397320E-08  3.05397320E-08  3.05397320E-08  3.05397320E-08  3.05397320E-08  3.05397320E-08  3.05397320E-08  3.05397320E-08
      3.05397320E-08  3.05397320E-08  3.05397320E-08  3.05397320E-08  3.05397320E-08  3.05397320E-08  3.05397320E-08  3.05397320E-08  3.05397320E-08  3.05397320E-08  3.05397320E-08  3.05397320E-08  3.05397320E-08  3.05397320E-08  3.05397320E-08  3.05397320E-08  3.05397320E-08  3.05397320E-08  3.05397320E-08  3.05397320E-08  3.05397320E-08  3.05397320E-08  3.05397320E-08  3.05397320E-08  3.05397320E-08  3.05397320E-08  3.05397320E-08  3.05397320E-08  3.05397320E-08  3.05397320E-08  3.05397320E-08  3.05397320E-08  3.05397320E-08  3.05397320E-08  3.05397320E-08  3.05397320E-08  3.05397320E-08  3.05397320E-08  3.05397320E-08  3.05397320E-08
      3.05397320E-08  3.05397320E-08  3.05397320E-08  3.05397320E-08  3.05397320E-08  3.05397320E-08  3.05397320E-08  3.05397320E-08  3.05397320E-08  3.05397320E-08  3.05397320E-08  3.05397320E-08  3.05397320E-08  3.05397320E-08  3.05397320E-08  3.05397320E-08  3.05397320E-08  3.05397320E-08  3.05397320E-08  3.05397320E-08  3.05397320E-08  3.05397320E-08  3.05397320E-08  3.05397320E-08  3.05397320E-08  3.05397320E-08  3.05397320E-08  3.05397320E-08  3.05397320E-08  3.05397320E-08  3.05397320E-08  3.05397320E-08  3.05397320E-08  3.05397320E-08  3.05397320E-08  3.05397320E-08  3.05397320E-08  3.05397320E-08  3.05397320E-08  3.05397320E-08
      3.05397320E-08  3.05397320E-08  3.05397320E-08  3.05397320E-08  3.05397320E-08  3.05397320E-08  3.05397320E-08  3.05397320E-08  3.05397320E-08  3.05397320E-08  3.05397320E-08  3.05397320E-08  3.05397320E-08  3.05397320E-08  3.05397320E-08  3.05397320E-08  3.05397320E-08  3.05397320E-08  3.05397320E-08  3.05397320E-08  3.05397320E-08  3.05397320E-08  3.05397320E-08  3.05397320E-08  3.05397320E-08  3.05397320E-08  3.05397320E-08  3.05397320E-08  3.05397320E-08  3.05397320E-08  3.05397320E-08  3.05397320E-08  3.05397320E-08  3.05397320E-08  3.05397320E-08  3.05397320E-08  3.05397320E-08  3.05397320E-08  3.05397320E-08  3.05397320E-08
      3.05397320E-08  3.05397320E-08  3.05397320E-08  3.05397320E-08  3.05397320E-08  3.05397320E-08  3.05397320E-08  3.05397320E-08  3.05397320E-08  3.05397320E-08  3.05397320E-08  3.05397320E-08  3.05397320E-08  3.05397320E-08  3.05397320E-08  3.05397320E-08  3.05397320E-08  3.05397320E-08  3.05397320E-08  3.05397320E-08  3.05397320E-08  3.05397320E-08  3.05397320E-08  3.05397320E-08  3.05397320E-08  3.05397320E-08  3.05397320E-08  3.05397320E-08  3.05397320E-08  3.05397320E-08  3.05397320E-08  3.05397320E-08  3.05397320E-08  3.05397320E-08  3.05397320E-08  3.05397320E-08  3.05397320E-08  3.05397320E-08  3.05397320E-08  3.05397320E-08
      3.05397320E-08  3.05397320E-08  3.05397320E-08  3.05397320E-08  3.05397320E-08  3.05397320E-08  3.05397320E-08  3.05397320E-08  3.05397320E-08  3.05397320E-08  3.05397320E-08  3.05397320E-08  3.05397320E-08  3.05397320E-08  3.05397320E-08  3.05397320E-08  3.05397320E-08  3.05397320E-08  3.05397320E-08  3.05397320E-08  3.05397320E-08  3.05397320E-08  3.05397320E-08  3.05397320E-08  3.05397320E-08  3.05397320E-08  3.05397320E-08  3.05397320E-08  3.05397320E-08  3.05397320E-08  3.05397320E-08  3.05397320E-08  3.05397320E-08  3.05397320E-08  3.05397320E-08  3.05397320E-08  3.05397320E-08  3.05397320E-08  3.05397320E-08  3.05397320E-08
    INTERNAL  FACTOR  1.0
      3.05397320E-08  3.05397320E-08  3.05397320E-08  3.05397320E-08  3.05397320E-08  3.05397320E-08  3.05397320E-08  3.05397320E-08  3.05397320E-08  3.05397320E-08  3.05397320E-08  3.05397320E-08  3.05397320E-08  3.05397320E-08  3.05397320E-08  3.05397320E-08  3.05397320E-08  3.05397320E-08  3.05397320E-08  3.05397320E-08  3.05397320E-08  3.05397320E-08  3.05397320E-08  3.05397320E-08  3.05397320E-08  3.05397320E-08  3.05397320E-08  3.05397320E-08  3.05397320E-08  3.05397320E-08  3.05397320E-08  3.05397320E-08  3.05397320E-08  3.05397320E-08  3.05397320E-08  3.05397320E-08  3.05397320E-08  3.05397320E-08  3.05397320E-08  3.05397320E-08
      3.05397320E-08  3.05397320E-08  3.05397320E-08  3.05397320E-08  3.05397320E-08  3.05397320E-08  3.05397320E-08  3.05397320E-08  3.05397320E-08  3.05397320E-08  3.05397320E-08  3.05397320E-08  3.05397320E-08  3.05397320E-08  3.05397320E-08  3.05397320E-08  3.05397320E-08  3.05397320E-08  3.05397320E-08  3.05397320E-08  3.05397320E-08  3.05397320E-08  3.05397320E-08  3.05397320E-08  3.05397320E-08  3.05397320E-08  3.05397320E-08  3.05397320E-08  3.05397320E-08  3.05397320E-08  3.05397320E-08  3.05397320E-08  3.05397320E-08  3.05397320E-08  3.05397320E-08  3.05397320E-08  3.05397320E-08  3.05397320E-08  3.05397320E-08  3.05397320E-08
      3.05397320E-08  3.05397320E-08  3.05397320E-08  3.05397320E-08  3.05397320E-08  3.05397320E-08  3.05397320E-08  3.05397320E-08  3.05397320E-08  3.05397320E-08  3.05397320E-08  3.05397320E-08  3.05397320E-08  3.05397320E-08  3.05397320E-08  3.05397320E-08  3.05397320E-08  3.05397320E-08  3.05397320E-08  3.05397320E-08  3.05397320E-08  3.05397320E-08  3.05397320E-08  3.05397320E-08  3.05397320E-08  3.05397320E-08  3.05397320E-08  3.05397320E-08  3.05397320E-08  3.05397320E-08  3.05397320E-08  3.05397320E-08  3.05397320E-08  3.05397320E-08  3.05397320E-08  3.05397320E-08  3.05397320E-08  3.05397320E-08  3.05397320E-08  3.05397320E-08
      3.05397320E-08  3.05397320E-08  3.05397320E-08  3.05397320E-08  3.05397320E-08  3.05397320E-08  3.05397320E-08  3.05397320E-08  3.05397320E-08  3.05397320E-08  3.05397320E-08  3.05397320E-08  3.05397320E-08  3.05397320E-08  3.05397320E-08  3.05397320E-08  3.05397320E-08  3.05397320E-08  3.05397320E-08  3.05397320E-08  3.05397320E-08  3.05397320E-08  3.05397320E-08  3.05397320E-08  3.05397320E-08  3.05397320E-08  3.05397320E-08  3.05397320E-08  3.05397320E-08  3.05397320E-08  3.05397320E-08  3.05397320E-08  3.05397320E-08  3.05397320E-08  3.05397320E-08  3.05397320E-08  3.05397320E-08  3.05397320E-08  3.05397320E-08  3.05397320E-08
      3.05397320E-08  3.05397320E-08  3.05397320E-08  3.05397320E-08  3.05397320E-08  3.05397320E-08  3.05397320E-08  3.05397320E-08  3.05397320E-08  3.05397320E-08  3.05397320E-08  3.05397320E-08  3.05397320E-08  3.05397320E-08  3.05397320E-08  3.05397320E-08  3.05397320E-08  3.05397320E-08  3.05397320E-08  3.05397320E-08  3.05397320E-08  3.05397320E-08  3.05397320E-08  3.05397320E-08  3.05397320E-08  3.05397320E-08  3.05397320E-08  3.05397320E-08  3.05397320E-08  3.05397320E-08  3.05397320E-08  3.05397320E-08  3.05397320E-08  3.05397320E-08  3.05397320E-08  3.05397320E-08  3.05397320E-08  3.05397320E-08  3.05397320E-08  3.05397320E-08
      3.05397320E-08  3.05397320E-08  3.05397320E-08  3.05397320E-08  3.05397320E-08  3.05397320E-08  3.05397320E-08  3.05397320E-08  3.05397320E-08  3.05397320E-08  3.05397320E-08  3.05397320E-08  3.05397320E-08  3.05397320E-08  3.05397320E-08  3.05397320E-08  3.05397320E-08  3.05397320E-08  3.05397320E-08  3.05397320E-08  3.05397320E-08  3.05397320E-08  3.05397320E-08  3.05397320E-08  3.05397320E-08  3.05397320E-08  3.05397320E-08  3.05397320E-08  3.05397320E-08  3.05397320E-08  3.05397320E-08  3.05397320E-08  3.05397320E-08  3.05397320E-08  3.05397320E-08  3.05397320E-08  3.05397320E-08  3.05397320E-08  3.05397320E-08  3.05397320E-08