# File generated by Flopy version 3.8.2 on 01/21/2025 at 16:05:32.
BEGIN options
END options

BEGIN griddata
  strt
    CONSTANT       1.00000000
END griddata

