# File generated by Flopy version 3.9.1 on 01/21/2025 at 12:01:13.
BEGIN options
  SAVE_FLOWS
END options

BEGIN dimensions
  MAXBOUND  2400
END dimensions

BEGIN period  1
  1 1 1 100
  1 2 1 100
  1 3 1 100
  1 4 1 100
  1 5 1 100
  1 6 1 100
  1 7 1 100
  1 8 1 100
  1 9 1 100
  1 10 1 100
  1 11 1 100
  1 12 1 100
  1 13 1 100
  1 14 1 100
  1 15 1 100
  1 16 1 100
  1 17 1 100
  1 18 1 100
  1 19 1 100
  1 20 1 100
  1 21 1 100
  1 22 1 100
  1 23 1 100
  1 24 1 100
  1 25 1 100
  1 26 1 100
  1 27 1 100
  1 28 1 100
  1 29 1 100
  1 30 1 100
  1 31 1 100
  1 32 1 100
  1 33 1 100
  1 34 1 100
  1 35 1 100
  1 36 1 100
  1 37 1 100
  1 38 1 100
  1 39 1 100
  1 40 1 100
  2 1 1 100
  2 2 1 100
  2 3 1 100
  2 4 1 100
  2 5 1 100
  2 6 1 100
  2 7 1 100
  2 8 1 100
  2 9 1 100
  2 10 1 100
  2 11 1 100
  2 12 1 100
  2 13 1 100
  2 14 1 100
  2 15 1 100
  2 16 1 100
  2 17 1 100
  2 18 1 100
  2 19 1 100
  2 20 1 100
  2 21 1 100
  2 22 1 100
  2 23 1 100
  2 24 1 100
  2 25 1 100
  2 26 1 100
  2 27 1 100
  2 28 1 100
  2 29 1 100
  2 30 1 100
  2 31 1 100
  2 32 1 100
  2 33 1 100
  2 34 1 100
  2 35 1 100
  2 36 1 100
  2 37 1 100
  2 38 1 100
  2 39 1 100
  2 40 1 100
  3 1 1 100
  3 2 1 100
  3 3 1 100
  3 4 1 100
  3 5 1 100
  3 6 1 100
  3 7 1 100
  3 8 1 100
  3 9 1 100
  3 10 1 100
  3 11 1 100
  3 12 1 100
  3 13 1 100
  3 14 1 100
  3 15 1 100
  3 16 1 100
  3 17 1 100
  3 18 1 100
  3 19 1 100
  3 20 1 100
  3 21 1 100
  3 22 1 100
  3 23 1 100
  3 24 1 100
  3 25 1 100
  3 26 1 100
  3 27 1 100
  3 28 1 100
  3 29 1 100
  3 30 1 100
  3 31 1 100
  3 32 1 100
  3 33 1 100
  3 34 1 100
  3 35 1 100
  3 36 1 100
  3 37 1 100
  3 38 1 100
  3 39 1 100
  3 40 1 100
  4 1 1 100
  4 2 1 100
  4 3 1 100
  4 4 1 100
  4 5 1 100
  4 6 1 100
  4 7 1 100
  4 8 1 100
  4 9 1 100
  4 10 1 100
  4 11 1 100
  4 12 1 100
  4 13 1 100
  4 14 1 100
  4 15 1 100
  4 16 1 100
  4 17 1 100
  4 18 1 100
  4 19 1 100
  4 20 1 100
  4 21 1 100
  4 22 1 100
  4 23 1 100
  4 24 1 100
  4 25 1 100
  4 26 1 100
  4 27 1 100
  4 28 1 100
  4 29 1 100
  4 30 1 100
  4 31 1 100
  4 32 1 100
  4 33 1 100
  4 34 1 100
  4 35 1 100
  4 36 1 100
  4 37 1 100
  4 38 1 100
  4 39 1 100
  4 40 1 100
  5 1 1 100
  5 2 1 100
  5 3 1 100
  5 4 1 100
  5 5 1 100
  5 6 1 100
  5 7 1 100
  5 8 1 100
  5 9 1 100
  5 10 1 100
  5 11 1 100
  5 12 1 100
  5 13 1 100
  5 14 1 100
  5 15 1 100
  5 16 1 100
  5 17 1 100
  5 18 1 100
  5 19 1 100
  5 20 1 100
  5 21 1 100
  5 22 1 100
  5 23 1 100
  5 24 1 100
  5 25 1 100
  5 26 1 100
  5 27 1 100
  5 28 1 100
  5 29 1 100
  5 30 1 100
  5 31 1 100
  5 32 1 100
  5 33 1 100
  5 34 1 100
  5 35 1 100
  5 36 1 100
  5 37 1 100
  5 38 1 100
  5 39 1 100
  5 40 1 100
  6 1 1 100
  6 2 1 100
  6 3 1 100
  6 4 1 100
  6 5 1 100
  6 6 1 100
  6 7 1 100
  6 8 1 100
  6 9 1 100
  6 10 1 100
  6 11 1 100
  6 12 1 100
  6 13 1 100
  6 14 1 100
  6 15 1 100
  6 16 1 100
  6 17 1 100
  6 18 1 100
  6 19 1 100
  6 20 1 100
  6 21 1 100
  6 22 1 100
  6 23 1 100
  6 24 1 100
  6 25 1 100
  6 26 1 100
  6 27 1 100
  6 28 1 100
  6 29 1 100
  6 30 1 100
  6 31 1 100
  6 32 1 100
  6 33 1 100
  6 34 1 100
  6 35 1 100
  6 36 1 100
  6 37 1 100
  6 38 1 100
  6 39 1 100
  6 40 1 100
  7 1 1 100
  7 2 1 100
  7 3 1 100
  7 4 1 100
  7 5 1 100
  7 6 1 100
  7 7 1 100
  7 8 1 100
  7 9 1 100
  7 10 1 100
  7 11 1 100
  7 12 1 100
  7 13 1 100
  7 14 1 100
  7 15 1 100
  7 16 1 100
  7 17 1 100
  7 18 1 100
  7 19 1 100
  7 20 1 100
  7 21 1 100
  7 22 1 100
  7 23 1 100
  7 24 1 100
  7 25 1 100
  7 26 1 100
  7 27 1 100
  7 28 1 100
  7 29 1 100
  7 30 1 100
  7 31 1 100
  7 32 1 100
  7 33 1 100
  7 34 1 100
  7 35 1 100
  7 36 1 100
  7 37 1 100
  7 38 1 100
  7 39 1 100
  7 40 1 100
  8 1 1 100
  8 2 1 100
  8 3 1 100
  8 4 1 100
  8 5 1 100
  8 6 1 100
  8 7 1 100
  8 8 1 100
  8 9 1 100
  8 10 1 100
  8 11 1 100
  8 12 1 100
  8 13 1 100
  8 14 1 100
  8 15 1 100
  8 16 1 100
  8 17 1 100
  8 18 1 100
  8 19 1 100
  8 20 1 100
  8 21 1 100
  8 22 1 100
  8 23 1 100
  8 24 1 100
  8 25 1 100
  8 26 1 100
  8 27 1 100
  8 28 1 100
  8 29 1 100
  8 30 1 100
  8 31 1 100
  8 32 1 100
  8 33 1 100
  8 34 1 100
  8 35 1 100
  8 36 1 100
  8 37 1 100
  8 38 1 100
  8 39 1 100
  8 40 1 100
  9 1 1 100
  9 2 1 100
  9 3 1 100
  9 4 1 100
  9 5 1 100
  9 6 1 100
  9 7 1 100
  9 8 1 100
  9 9 1 100
  9 10 1 100
  9 11 1 100
  9 12 1 100
  9 13 1 100
  9 14 1 100
  9 15 1 100
  9 16 1 100
  9 17 1 100
  9 18 1 100
  9 19 1 100
  9 20 1 100
  9 21 1 100
  9 22 1 100
  9 23 1 100
  9 24 1 100
  9 25 1 100
  9 26 1 100
  9 27 1 100
  9 28 1 100
  9 29 1 100
  9 30 1 100
  9 31 1 100
  9 32 1 100
  9 33 1 100
  9 34 1 100
  9 35 1 100
  9 36 1 100
  9 37 1 100
  9 38 1 100
  9 39 1 100
  9 40 1 100
  10 1 1 100
  10 2 1 100
  10 3 1 100
  10 4 1 100
  10 5 1 100
  10 6 1 100
  10 7 1 100
  10 8 1 100
  10 9 1 100
  10 10 1 100
  10 11 1 100
  10 12 1 100
  10 13 1 100
  10 14 1 100
  10 15 1 100
  10 16 1 100
  10 17 1 100
  10 18 1 100
  10 19 1 100
  10 20 1 100
  10 21 1 100
  10 22 1 100
  10 23 1 100
  10 24 1 100
  10 25 1 100
  10 26 1 100
  10 27 1 100
  10 28 1 100
  10 29 1 100
  10 30 1 100
  10 31 1 100
  10 32 1 100
  10 33 1 100
  10 34 1 100
  10 35 1 100
  10 36 1 100
  10 37 1 100
  10 38 1 100
  10 39 1 100
  10 40 1 100
  11 1 1 100
  11 2 1 100
  11 3 1 100
  11 4 1 100
  11 5 1 100
  11 6 1 100
  11 7 1 100
  11 8 1 100
  11 9 1 100
  11 10 1 100
  11 11 1 100
  11 12 1 100
  11 13 1 100
  11 14 1 100
  11 15 1 100
  11 16 1 100
  11 17 1 100
  11 18 1 100
  11 19 1 100
  11 20 1 100
  11 21 1 100
  11 22 1 100
  11 23 1 100
  11 24 1 100
  11 25 1 100
  11 26 1 100
  11 27 1 100
  11 28 1 100
  11 29 1 100
  11 30 1 100
  11 31 1 100
  11 32 1 100
  11 33 1 100
  11 34 1 100
  11 35 1 100
  11 36 1 100
  11 37 1 100
  11 38 1 100
  11 39 1 100
  11 40 1 100
  12 1 1 100
  12 2 1 100
  12 3 1 100
  12 4 1 100
  12 5 1 100
  12 6 1 100
  12 7 1 100
  12 8 1 100
  12 9 1 100
  12 10 1 100
  12 11 1 100
  12 12 1 100
  12 13 1 100
  12 14 1 100
  12 15 1 100
  12 16 1 100
  12 17 1 100
  12 18 1 100
  12 19 1 100
  12 20 1 100
  12 21 1 100
  12 22 1 100
  12 23 1 100
  12 24 1 100
  12 25 1 100
  12 26 1 100
  12 27 1 100
  12 28 1 100
  12 29 1 100
  12 30 1 100
  12 31 1 100
  12 32 1 100
  12 33 1 100
  12 34 1 100
  12 35 1 100
  12 36 1 100
  12 37 1 100
  12 38 1 100
  12 39 1 100
  12 40 1 100
  13 1 1 100
  13 2 1 100
  13 3 1 100
  13 4 1 100
  13 5 1 100
  13 6 1 100
  13 7 1 100
  13 8 1 100
  13 9 1 100
  13 10 1 100
  13 11 1 100
  13 12 1 100
  13 13 1 100
  13 14 1 100
  13 15 1 100
  13 16 1 100
  13 17 1 100
  13 18 1 100
  13 19 1 100
  13 20 1 100
  13 21 1 100
  13 22 1 100
  13 23 1 100
  13 24 1 100
  13 25 1 100
  13 26 1 100
  13 27 1 100
  13 28 1 100
  13 29 1 100
  13 30 1 100
  13 31 1 100
  13 32 1 100
  13 33 1 100
  13 34 1 100
  13 35 1 100
  13 36 1 100
  13 37 1 100
  13 38 1 100
  13 39 1 100
  13 40 1 100
  14 1 1 100
  14 2 1 100
  14 3 1 100
  14 4 1 100
  14 5 1 100
  14 6 1 100
  14 7 1 100
  14 8 1 100
  14 9 1 100
  14 10 1 100
  14 11 1 100
  14 12 1 100
  14 13 1 100
  14 14 1 100
  14 15 1 100
  14 16 1 100
  14 17 1 100
  14 18 1 100
  14 19 1 100
  14 20 1 100
  14 21 1 100
  14 22 1 100
  14 23 1 100
  14 24 1 100
  14 25 1 100
  14 26 1 100
  14 27 1 100
  14 28 1 100
  14 29 1 100
  14 30 1 100
  14 31 1 100
  14 32 1 100
  14 33 1 100
  14 34 1 100
  14 35 1 100
  14 36 1 100
  14 37 1 100
  14 38 1 100
  14 39 1 100
  14 40 1 100
  15 1 1 100
  15 2 1 100
  15 3 1 100
  15 4 1 100
  15 5 1 100
  15 6 1 100
  15 7 1 100
  15 8 1 100
  15 9 1 100
  15 10 1 100
  15 11 1 100
  15 12 1 100
  15 13 1 100
  15 14 1 100
  15 15 1 100
  15 16 1 100
  15 17 1 100
  15 18 1 100
  15 19 1 100
  15 20 1 100
  15 21 1 100
  15 22 1 100
  15 23 1 100
  15 24 1 100
  15 25 1 100
  15 26 1 100
  15 27 1 100
  15 28 1 100
  15 29 1 100
  15 30 1 100
  15 31 1 100
  15 32 1 100
  15 33 1 100
  15 34 1 100
  15 35 1 100
  15 36 1 100
  15 37 1 100
  15 38 1 100
  15 39 1 100
  15 40 1 100
  16 1 1 100
  16 2 1 100
  16 3 1 100
  16 4 1 100
  16 5 1 100
  16 6 1 100
  16 7 1 100
  16 8 1 100
  16 9 1 100
  16 10 1 100
  16 11 1 100
  16 12 1 100
  16 13 1 100
  16 14 1 100
  16 15 1 100
  16 16 1 100
  16 17 1 100
  16 18 1 100
  16 19 1 100
  16 20 1 100
  16 21 1 100
  16 22 1 100
  16 23 1 100
  16 24 1 100
  16 25 1 100
  16 26 1 100
  16 27 1 100
  16 28 1 100
  16 29 1 100
  16 30 1 100
  16 31 1 100
  16 32 1 100
  16 33 1 100
  16 34 1 100
  16 35 1 100
  16 36 1 100
  16 37 1 100
  16 38 1 100
  16 39 1 100
  16 40 1 100
  17 1 1 100
  17 2 1 100
  17 3 1 100
  17 4 1 100
  17 5 1 100
  17 6 1 100
  17 7 1 100
  17 8 1 100
  17 9 1 100
  17 10 1 100
  17 11 1 100
  17 12 1 100
  17 13 1 100
  17 14 1 100
  17 15 1 100
  17 16 1 100
  17 17 1 100
  17 18 1 100
  17 19 1 100
  17 20 1 100
  17 21 1 100
  17 22 1 100
  17 23 1 100
  17 24 1 100
  17 25 1 100
  17 26 1 100
  17 27 1 100
  17 28 1 100
  17 29 1 100
  17 30 1 100
  17 31 1 100
  17 32 1 100
  17 33 1 100
  17 34 1 100
  17 35 1 100
  17 36 1 100
  17 37 1 100
  17 38 1 100
  17 39 1 100
  17 40 1 100
  18 1 1 100
  18 2 1 100
  18 3 1 100
  18 4 1 100
  18 5 1 100
  18 6 1 100
  18 7 1 100
  18 8 1 100
  18 9 1 100
  18 10 1 100
  18 11 1 100
  18 12 1 100
  18 13 1 100
  18 14 1 100
  18 15 1 100
  18 16 1 100
  18 17 1 100
  18 18 1 100
  18 19 1 100
  18 20 1 100
  18 21 1 100
  18 22 1 100
  18 23 1 100
  18 24 1 100
  18 25 1 100
  18 26 1 100
  18 27 1 100
  18 28 1 100
  18 29 1 100
  18 30 1 100
  18 31 1 100
  18 32 1 100
  18 33 1 100
  18 34 1 100
  18 35 1 100
  18 36 1 100
  18 37 1 100
  18 38 1 100
  18 39 1 100
  18 40 1 100
  19 1 1 100
  19 2 1 100
  19 3 1 100
  19 4 1 100
  19 5 1 100
  19 6 1 100
  19 7 1 100
  19 8 1 100
  19 9 1 100
  19 10 1 100
  19 11 1 100
  19 12 1 100
  19 13 1 100
  19 14 1 100
  19 15 1 100
  19 16 1 100
  19 17 1 100
  19 18 1 100
  19 19 1 100
  19 20 1 100
  19 21 1 100
  19 22 1 100
  19 23 1 100
  19 24 1 100
  19 25 1 100
  19 26 1 100
  19 27 1 100
  19 28 1 100
  19 29 1 100
  19 30 1 100
  19 31 1 100
  19 32 1 100
  19 33 1 100
  19 34 1 100
  19 35 1 100
  19 36 1 100
  19 37 1 100
  19 38 1 100
  19 39 1 100
  19 40 1 100
  20 1 1 100
  20 2 1 100
  20 3 1 100
  20 4 1 100
  20 5 1 100
  20 6 1 100
  20 7 1 100
  20 8 1 100
  20 9 1 100
  20 10 1 100
  20 11 1 100
  20 12 1 100
  20 13 1 100
  20 14 1 100
  20 15 1 100
  20 16 1 100
  20 17 1 100
  20 18 1 100
  20 19 1 100
  20 20 1 100
  20 21 1 100
  20 22 1 100
  20 23 1 100
  20 24 1 100
  20 25 1 100
  20 26 1 100
  20 27 1 100
  20 28 1 100
  20 29 1 100
  20 30 1 100
  20 31 1 100
  20 32 1 100
  20 33 1 100
  20 34 1 100
  20 35 1 100
  20 36 1 100
  20 37 1 100
  20 38 1 100
  20 39 1 100
  20 40 1 100
  21 1 1 100
  21 2 1 100
  21 3 1 100
  21 4 1 100
  21 5 1 100
  21 6 1 100
  21 7 1 100
  21 8 1 100
  21 9 1 100
  21 10 1 100
  21 11 1 100
  21 12 1 100
  21 13 1 100
  21 14 1 100
  21 15 1 100
  21 16 1 100
  21 17 1 100
  21 18 1 100
  21 19 1 100
  21 20 1 100
  21 21 1 100
  21 22 1 100
  21 23 1 100
  21 24 1 100
  21 25 1 100
  21 26 1 100
  21 27 1 100
  21 28 1 100
  21 29 1 100
  21 30 1 100
  21 31 1 100
  21 32 1 100
  21 33 1 100
  21 34 1 100
  21 35 1 100
  21 36 1 100
  21 37 1 100
  21 38 1 100
  21 39 1 100
  21 40 1 100
  22 1 1 100
  22 2 1 100
  22 3 1 100
  22 4 1 100
  22 5 1 100
  22 6 1 100
  22 7 1 100
  22 8 1 100
  22 9 1 100
  22 10 1 100
  22 11 1 100
  22 12 1 100
  22 13 1 100
  22 14 1 100
  22 15 1 100
  22 16 1 100
  22 17 1 100
  22 18 1 100
  22 19 1 100
  22 20 1 100
  22 21 1 100
  22 22 1 100
  22 23 1 100
  22 24 1 100
  22 25 1 100
  22 26 1 100
  22 27 1 100
  22 28 1 100
  22 29 1 100
  22 30 1 100
  22 31 1 100
  22 32 1 100
  22 33 1 100
  22 34 1 100
  22 35 1 100
  22 36 1 100
  22 37 1 100
  22 38 1 100
  22 39 1 100
  22 40 1 100
  23 1 1 100
  23 2 1 100
  23 3 1 100
  23 4 1 100
  23 5 1 100
  23 6 1 100
  23 7 1 100
  23 8 1 100
  23 9 1 100
  23 10 1 100
  23 11 1 100
  23 12 1 100
  23 13 1 100
  23 14 1 100
  23 15 1 100
  23 16 1 100
  23 17 1 100
  23 18 1 100
  23 19 1 100
  23 20 1 100
  23 21 1 100
  23 22 1 100
  23 23 1 100
  23 24 1 100
  23 25 1 100
  23 26 1 100
  23 27 1 100
  23 28 1 100
  23 29 1 100
  23 30 1 100
  23 31 1 100
  23 32 1 100
  23 33 1 100
  23 34 1 100
  23 35 1 100
  23 36 1 100
  23 37 1 100
  23 38 1 100
  23 39 1 100
  23 40 1 100
  24 1 1 100
  24 2 1 100
  24 3 1 100
  24 4 1 100
  24 5 1 100
  24 6 1 100
  24 7 1 100
  24 8 1 100
  24 9 1 100
  24 10 1 100
  24 11 1 100
  24 12 1 100
  24 13 1 100
  24 14 1 100
  24 15 1 100
  24 16 1 100
  24 17 1 100
  24 18 1 100
  24 19 1 100
  24 20 1 100
  24 21 1 100
  24 22 1 100
  24 23 1 100
  24 24 1 100
  24 25 1 100
  24 26 1 100
  24 27 1 100
  24 28 1 100
  24 29 1 100
  24 30 1 100
  24 31 1 100
  24 32 1 100
  24 33 1 100
  24 34 1 100
  24 35 1 100
  24 36 1 100
  24 37 1 100
  24 38 1 100
  24 39 1 100
  24 40 1 100
  25 1 1 100
  25 2 1 100
  25 3 1 100
  25 4 1 100
  25 5 1 100
  25 6 1 100
  25 7 1 100
  25 8 1 100
  25 9 1 100
  25 10 1 100
  25 11 1 100
  25 12 1 100
  25 13 1 100
  25 14 1 100
  25 15 1 100
  25 16 1 100
  25 17 1 100
  25 18 1 100
  25 19 1 100
  25 20 1 100
  25 21 1 100
  25 22 1 100
  25 23 1 100
  25 24 1 100
  25 25 1 100
  25 26 1 100
  25 27 1 100
  25 28 1 100
  25 29 1 100
  25 30 1 100
  25 31 1 100
  25 32 1 100
  25 33 1 100
  25 34 1 100
  25 35 1 100
  25 36 1 100
  25 37 1 100
  25 38 1 100
  25 39 1 100
  25 40 1 100
  26 1 1 100
  26 2 1 100
  26 3 1 100
  26 4 1 100
  26 5 1 100
  26 6 1 100
  26 7 1 100
  26 8 1 100
  26 9 1 100
  26 10 1 100
  26 11 1 100
  26 12 1 100
  26 13 1 100
  26 14 1 100
  26 15 1 100
  26 16 1 100
  26 17 1 100
  26 18 1 100
  26 19 1 100
  26 20 1 100
  26 21 1 100
  26 22 1 100
  26 23 1 100
  26 24 1 100
  26 25 1 100
  26 26 1 100
  26 27 1 100
  26 28 1 100
  26 29 1 100
  26 30 1 100
  26 31 1 100
  26 32 1 100
  26 33 1 100
  26 34 1 100
  26 35 1 100
  26 36 1 100
  26 37 1 100
  26 38 1 100
  26 39 1 100
  26 40 1 100
  27 1 1 100
  27 2 1 100
  27 3 1 100
  27 4 1 100
  27 5 1 100
  27 6 1 100
  27 7 1 100
  27 8 1 100
  27 9 1 100
  27 10 1 100
  27 11 1 100
  27 12 1 100
  27 13 1 100
  27 14 1 100
  27 15 1 100
  27 16 1 100
  27 17 1 100
  27 18 1 100
  27 19 1 100
  27 20 1 100
  27 21 1 100
  27 22 1 100
  27 23 1 100
  27 24 1 100
  27 25 1 100
  27 26 1 100
  27 27 1 100
  27 28 1 100
  27 29 1 100
  27 30 1 100
  27 31 1 100
  27 32 1 100
  27 33 1 100
  27 34 1 100
  27 35 1 100
  27 36 1 100
  27 37 1 100
  27 38 1 100
  27 39 1 100
  27 40 1 100
  28 1 1 100
  28 2 1 100
  28 3 1 100
  28 4 1 100
  28 5 1 100
  28 6 1 100
  28 7 1 100
  28 8 1 100
  28 9 1 100
  28 10 1 100
  28 11 1 100
  28 12 1 100
  28 13 1 100
  28 14 1 100
  28 15 1 100
  28 16 1 100
  28 17 1 100
  28 18 1 100
  28 19 1 100
  28 20 1 100
  28 21 1 100
  28 22 1 100
  28 23 1 100
  28 24 1 100
  28 25 1 100
  28 26 1 100
  28 27 1 100
  28 28 1 100
  28 29 1 100
  28 30 1 100
  28 31 1 100
  28 32 1 100
  28 33 1 100
  28 34 1 100
  28 35 1 100
  28 36 1 100
  28 37 1 100
  28 38 1 100
  28 39 1 100
  28 40 1 100
  29 1 1 100
  29 2 1 100
  29 3 1 100
  29 4 1 100
  29 5 1 100
  29 6 1 100
  29 7 1 100
  29 8 1 100
  29 9 1 100
  29 10 1 100
  29 11 1 100
  29 12 1 100
  29 13 1 100
  29 14 1 100
  29 15 1 100
  29 16 1 100
  29 17 1 100
  29 18 1 100
  29 19 1 100
  29 20 1 100
  29 21 1 100
  29 22 1 100
  29 23 1 100
  29 24 1 100
  29 25 1 100
  29 26 1 100
  29 27 1 100
  29 28 1 100
  29 29 1 100
  29 30 1 100
  29 31 1 100
  29 32 1 100
  29 33 1 100
  29 34 1 100
  29 35 1 100
  29 36 1 100
  29 37 1 100
  29 38 1 100
  29 39 1 100
  29 40 1 100
  30 1 1 100
  30 2 1 100
  30 3 1 100
  30 4 1 100
  30 5 1 100
  30 6 1 100
  30 7 1 100
  30 8 1 100
  30 9 1 100
  30 10 1 100
  30 11 1 100
  30 12 1 100
  30 13 1 100
  30 14 1 100
  30 15 1 100
  30 16 1 100
  30 17 1 100
  30 18 1 100
  30 19 1 100
  30 20 1 100
  30 21 1 100
  30 22 1 100
  30 23 1 100
  30 24 1 100
  30 25 1 100
  30 26 1 100
  30 27 1 100
  30 28 1 100
  30 29 1 100
  30 30 1 100
  30 31 1 100
  30 32 1 100
  30 33 1 100
  30 34 1 100
  30 35 1 100
  30 36 1 100
  30 37 1 100
  30 38 1 100
  30 39 1 100
  30 40 1 100
  1 1 40 0
  1 2 40 0
  1 3 40 0
  1 4 40 0
  1 5 40 0
  1 6 40 0
  1 7 40 0
  1 8 40 0
  1 9 40 0
  1 10 40 0
  1 11 40 0
  1 12 40 0
  1 13 40 0
  1 14 40 0
  1 15 40 0
  1 16 40 0
  1 17 40 0
  1 18 40 0
  1 19 40 0
  1 20 40 0
  1 21 40 0
  1 22 40 0
  1 23 40 0
  1 24 40 0
  1 25 40 0
  1 26 40 0
  1 27 40 0
  1 28 40 0
  1 29 40 0
  1 30 40 0
  1 31 40 0
  1 32 40 0
  1 33 40 0
  1 34 40 0
  1 35 40 0
  1 36 40 0
  1 37 40 0
  1 38 40 0
  1 39 40 0
  1 40 40 0
  2 1 40 0
  2 2 40 0
  2 3 40 0
  2 4 40 0
  2 5 40 0
  2 6 40 0
  2 7 40 0
  2 8 40 0
  2 9 40 0
  2 10 40 0
  2 11 40 0
  2 12 40 0
  2 13 40 0
  2 14 40 0
  2 15 40 0
  2 16 40 0
  2 17 40 0
  2 18 40 0
  2 19 40 0
  2 20 40 0
  2 21 40 0
  2 22 40 0
  2 23 40 0
  2 24 40 0
  2 25 40 0
  2 26 40 0
  2 27 40 0
  2 28 40 0
  2 29 40 0
  2 30 40 0
  2 31 40 0
  2 32 40 0
  2 33 40 0
  2 34 40 0
  2 35 40 0
  2 36 40 0
  2 37 40 0
  2 38 40 0
  2 39 40 0
  2 40 40 0
  3 1 40 0
  3 2 40 0
  3 3 40 0
  3 4 40 0
  3 5 40 0
  3 6 40 0
  3 7 40 0
  3 8 40 0
  3 9 40 0
  3 10 40 0
  3 11 40 0
  3 12 40 0
  3 13 40 0
  3 14 40 0
  3 15 40 0
  3 16 40 0
  3 17 40 0
  3 18 40 0
  3 19 40 0
  3 20 40 0
  3 21 40 0
  3 22 40 0
  3 23 40 0
  3 24 40 0
  3 25 40 0
  3 26 40 0
  3 27 40 0
  3 28 40 0
  3 29 40 0
  3 30 40 0
  3 31 40 0
  3 32 40 0
  3 33 40 0
  3 34 40 0
  3 35 40 0
  3 36 40 0
  3 37 40 0
  3 38 40 0
  3 39 40 0
  3 40 40 0
  4 1 40 0
  4 2 40 0
  4 3 40 0
  4 4 40 0
  4 5 40 0
  4 6 40 0
  4 7 40 0
  4 8 40 0
  4 9 40 0
  4 10 40 0
  4 11 40 0
  4 12 40 0
  4 13 40 0
  4 14 40 0
  4 15 40 0
  4 16 40 0
  4 17 40 0
  4 18 40 0
  4 19 40 0
  4 20 40 0
  4 21 40 0
  4 22 40 0
  4 23 40 0
  4 24 40 0
  4 25 40 0
  4 26 40 0
  4 27 40 0
  4 28 40 0
  4 29 40 0
  4 30 40 0
  4 31 40 0
  4 32 40 0
  4 33 40 0
  4 34 40 0
  4 35 40 0
  4 36 40 0
  4 37 40 0
  4 38 40 0
  4 39 40 0
  4 40 40 0
  5 1 40 0
  5 2 40 0
  5 3 40 0
  5 4 40 0
  5 5 40 0
  5 6 40 0
  5 7 40 0
  5 8 40 0
  5 9 40 0
  5 10 40 0
  5 11 40 0
  5 12 40 0
  5 13 40 0
  5 14 40 0
  5 15 40 0
  5 16 40 0
  5 17 40 0
  5 18 40 0
  5 19 40 0
  5 20 40 0
  5 21 40 0
  5 22 40 0
  5 23 40 0
  5 24 40 0
  5 25 40 0
  5 26 40 0
  5 27 40 0
  5 28 40 0
  5 29 40 0
  5 30 40 0
  5 31 40 0
  5 32 40 0
  5 33 40 0
  5 34 40 0
  5 35 40 0
  5 36 40 0
  5 37 40 0
  5 38 40 0
  5 39 40 0
  5 40 40 0
  6 1 40 0
  6 2 40 0
  6 3 40 0
  6 4 40 0
  6 5 40 0
  6 6 40 0
  6 7 40 0
  6 8 40 0
  6 9 40 0
  6 10 40 0
  6 11 40 0
  6 12 40 0
  6 13 40 0
  6 14 40 0
  6 15 40 0
  6 16 40 0
  6 17 40 0
  6 18 40 0
  6 19 40 0
  6 20 40 0
  6 21 40 0
  6 22 40 0
  6 23 40 0
  6 24 40 0
  6 25 40 0
  6 26 40 0
  6 27 40 0
  6 28 40 0
  6 29 40 0
  6 30 40 0
  6 31 40 0
  6 32 40 0
  6 33 40 0
  6 34 40 0
  6 35 40 0
  6 36 40 0
  6 37 40 0
  6 38 40 0
  6 39 40 0
  6 40 40 0
  7 1 40 0
  7 2 40 0
  7 3 40 0
  7 4 40 0
  7 5 40 0
  7 6 40 0
  7 7 40 0
  7 8 40 0
  7 9 40 0
  7 10 40 0
  7 11 40 0
  7 12 40 0
  7 13 40 0
  7 14 40 0
  7 15 40 0
  7 16 40 0
  7 17 40 0
  7 18 40 0
  7 19 40 0
  7 20 40 0
  7 21 40 0
  7 22 40 0
  7 23 40 0
  7 24 40 0
  7 25 40 0
  7 26 40 0
  7 27 40 0
  7 28 40 0
  7 29 40 0
  7 30 40 0
  7 31 40 0
  7 32 40 0
  7 33 40 0
  7 34 40 0
  7 35 40 0
  7 36 40 0
  7 37 40 0
  7 38 40 0
  7 39 40 0
  7 40 40 0
  8 1 40 0
  8 2 40 0
  8 3 40 0
  8 4 40 0
  8 5 40 0
  8 6 40 0
  8 7 40 0
  8 8 40 0
  8 9 40 0
  8 10 40 0
  8 11 40 0
  8 12 40 0
  8 13 40 0
  8 14 40 0
  8 15 40 0
  8 16 40 0
  8 17 40 0
  8 18 40 0
  8 19 40 0
  8 20 40 0
  8 21 40 0
  8 22 40 0
  8 23 40 0
  8 24 40 0
  8 25 40 0
  8 26 40 0
  8 27 40 0
  8 28 40 0
  8 29 40 0
  8 30 40 0
  8 31 40 0
  8 32 40 0
  8 33 40 0
  8 34 40 0
  8 35 40 0
  8 36 40 0
  8 37 40 0
  8 38 40 0
  8 39 40 0
  8 40 40 0
  9 1 40 0
  9 2 40 0
  9 3 40 0
  9 4 40 0
  9 5 40 0
  9 6 40 0
  9 7 40 0
  9 8 40 0
  9 9 40 0
  9 10 40 0
  9 11 40 0
  9 12 40 0
  9 13 40 0
  9 14 40 0
  9 15 40 0
  9 16 40 0
  9 17 40 0
  9 18 40 0
  9 19 40 0
  9 20 40 0
  9 21 40 0
  9 22 40 0
  9 23 40 0
  9 24 40 0
  9 25 40 0
  9 26 40 0
  9 27 40 0
  9 28 40 0
  9 29 40 0
  9 30 40 0
  9 31 40 0
  9 32 40 0
  9 33 40 0
  9 34 40 0
  9 35 40 0
  9 36 40 0
  9 37 40 0
  9 38 40 0
  9 39 40 0
  9 40 40 0
  10 1 40 0
  10 2 40 0
  10 3 40 0
  10 4 40 0
  10 5 40 0
  10 6 40 0
  10 7 40 0
  10 8 40 0
  10 9 40 0
  10 10 40 0
  10 11 40 0
  10 12 40 0
  10 13 40 0
  10 14 40 0
  10 15 40 0
  10 16 40 0
  10 17 40 0
  10 18 40 0
  10 19 40 0
  10 20 40 0
  10 21 40 0
  10 22 40 0
  10 23 40 0
  10 24 40 0
  10 25 40 0
  10 26 40 0
  10 27 40 0
  10 28 40 0
  10 29 40 0
  10 30 40 0
  10 31 40 0
  10 32 40 0
  10 33 40 0
  10 34 40 0
  10 35 40 0
  10 36 40 0
  10 37 40 0
  10 38 40 0
  10 39 40 0
  10 40 40 0
  11 1 40 0
  11 2 40 0
  11 3 40 0
  11 4 40 0
  11 5 40 0
  11 6 40 0
  11 7 40 0
  11 8 40 0
  11 9 40 0
  11 10 40 0
  11 11 40 0
  11 12 40 0
  11 13 40 0
  11 14 40 0
  11 15 40 0
  11 16 40 0
  11 17 40 0
  11 18 40 0
  11 19 40 0
  11 20 40 0
  11 21 40 0
  11 22 40 0
  11 23 40 0
  11 24 40 0
  11 25 40 0
  11 26 40 0
  11 27 40 0
  11 28 40 0
  11 29 40 0
  11 30 40 0
  11 31 40 0
  11 32 40 0
  11 33 40 0
  11 34 40 0
  11 35 40 0
  11 36 40 0
  11 37 40 0
  11 38 40 0
  11 39 40 0
  11 40 40 0
  12 1 40 0
  12 2 40 0
  12 3 40 0
  12 4 40 0
  12 5 40 0
  12 6 40 0
  12 7 40 0
  12 8 40 0
  12 9 40 0
  12 10 40 0
  12 11 40 0
  12 12 40 0
  12 13 40 0
  12 14 40 0
  12 15 40 0
  12 16 40 0
  12 17 40 0
  12 18 40 0
  12 19 40 0
  12 20 40 0
  12 21 40 0
  12 22 40 0
  12 23 40 0
  12 24 40 0
  12 25 40 0
  12 26 40 0
  12 27 40 0
  12 28 40 0
  12 29 40 0
  12 30 40 0
  12 31 40 0
  12 32 40 0
  12 33 40 0
  12 34 40 0
  12 35 40 0
  12 36 40 0
  12 37 40 0
  12 38 40 0
  12 39 40 0
  12 40 40 0
  13 1 40 0
  13 2 40 0
  13 3 40 0
  13 4 40 0
  13 5 40 0
  13 6 40 0
  13 7 40 0
  13 8 40 0
  13 9 40 0
  13 10 40 0
  13 11 40 0
  13 12 40 0
  13 13 40 0
  13 14 40 0
  13 15 40 0
  13 16 40 0
  13 17 40 0
  13 18 40 0
  13 19 40 0
  13 20 40 0
  13 21 40 0
  13 22 40 0
  13 23 40 0
  13 24 40 0
  13 25 40 0
  13 26 40 0
  13 27 40 0
  13 28 40 0
  13 29 40 0
  13 30 40 0
  13 31 40 0
  13 32 40 0
  13 33 40 0
  13 34 40 0
  13 35 40 0
  13 36 40 0
  13 37 40 0
  13 38 40 0
  13 39 40 0
  13 40 40 0
  14 1 40 0
  14 2 40 0
  14 3 40 0
  14 4 40 0
  14 5 40 0
  14 6 40 0
  14 7 40 0
  14 8 40 0
  14 9 40 0
  14 10 40 0
  14 11 40 0
  14 12 40 0
  14 13 40 0
  14 14 40 0
  14 15 40 0
  14 16 40 0
  14 17 40 0
  14 18 40 0
  14 19 40 0
  14 20 40 0
  14 21 40 0
  14 22 40 0
  14 23 40 0
  14 24 40 0
  14 25 40 0
  14 26 40 0
  14 27 40 0
  14 28 40 0
  14 29 40 0
  14 30 40 0
  14 31 40 0
  14 32 40 0
  14 33 40 0
  14 34 40 0
  14 35 40 0
  14 36 40 0
  14 37 40 0
  14 38 40 0
  14 39 40 0
  14 40 40 0
  15 1 40 0
  15 2 40 0
  15 3 40 0
  15 4 40 0
  15 5 40 0
  15 6 40 0
  15 7 40 0
  15 8 40 0
  15 9 40 0
  15 10 40 0
  15 11 40 0
  15 12 40 0
  15 13 40 0
  15 14 40 0
  15 15 40 0
  15 16 40 0
  15 17 40 0
  15 18 40 0
  15 19 40 0
  15 20 40 0
  15 21 40 0
  15 22 40 0
  15 23 40 0
  15 24 40 0
  15 25 40 0
  15 26 40 0
  15 27 40 0
  15 28 40 0
  15 29 40 0
  15 30 40 0
  15 31 40 0
  15 32 40 0
  15 33 40 0
  15 34 40 0
  15 35 40 0
  15 36 40 0
  15 37 40 0
  15 38 40 0
  15 39 40 0
  15 40 40 0
  16 1 40 0
  16 2 40 0
  16 3 40 0
  16 4 40 0
  16 5 40 0
  16 6 40 0
  16 7 40 0
  16 8 40 0
  16 9 40 0
  16 10 40 0
  16 11 40 0
  16 12 40 0
  16 13 40 0
  16 14 40 0
  16 15 40 0
  16 16 40 0
  16 17 40 0
  16 18 40 0
  16 19 40 0
  16 20 40 0
  16 21 40 0
  16 22 40 0
  16 23 40 0
  16 24 40 0
  16 25 40 0
  16 26 40 0
  16 27 40 0
  16 28 40 0
  16 29 40 0
  16 30 40 0
  16 31 40 0
  16 32 40 0
  16 33 40 0
  16 34 40 0
  16 35 40 0
  16 36 40 0
  16 37 40 0
  16 38 40 0
  16 39 40 0
  16 40 40 0
  17 1 40 0
  17 2 40 0
  17 3 40 0
  17 4 40 0
  17 5 40 0
  17 6 40 0
  17 7 40 0
  17 8 40 0
  17 9 40 0
  17 10 40 0
  17 11 40 0
  17 12 40 0
  17 13 40 0
  17 14 40 0
  17 15 40 0
  17 16 40 0
  17 17 40 0
  17 18 40 0
  17 19 40 0
  17 20 40 0
  17 21 40 0
  17 22 40 0
  17 23 40 0
  17 24 40 0
  17 25 40 0
  17 26 40 0
  17 27 40 0
  17 28 40 0
  17 29 40 0
  17 30 40 0
  17 31 40 0
  17 32 40 0
  17 33 40 0
  17 34 40 0
  17 35 40 0
  17 36 40 0
  17 37 40 0
  17 38 40 0
  17 39 40 0
  17 40 40 0
  18 1 40 0
  18 2 40 0
  18 3 40 0
  18 4 40 0
  18 5 40 0
  18 6 40 0
  18 7 40 0
  18 8 40 0
  18 9 40 0
  18 10 40 0
  18 11 40 0
  18 12 40 0
  18 13 40 0
  18 14 40 0
  18 15 40 0
  18 16 40 0
  18 17 40 0
  18 18 40 0
  18 19 40 0
  18 20 40 0
  18 21 40 0
  18 22 40 0
  18 23 40 0
  18 24 40 0
  18 25 40 0
  18 26 40 0
  18 27 40 0
  18 28 40 0
  18 29 40 0
  18 30 40 0
  18 31 40 0
  18 32 40 0
  18 33 40 0
  18 34 40 0
  18 35 40 0
  18 36 40 0
  18 37 40 0
  18 38 40 0
  18 39 40 0
  18 40 40 0
  19 1 40 0
  19 2 40 0
  19 3 40 0
  19 4 40 0
  19 5 40 0
  19 6 40 0
  19 7 40 0
  19 8 40 0
  19 9 40 0
  19 10 40 0
  19 11 40 0
  19 12 40 0
  19 13 40 0
  19 14 40 0
  19 15 40 0
  19 16 40 0
  19 17 40 0
  19 18 40 0
  19 19 40 0
  19 20 40 0
  19 21 40 0
  19 22 40 0
  19 23 40 0
  19 24 40 0
  19 25 40 0
  19 26 40 0
  19 27 40 0
  19 28 40 0
  19 29 40 0
  19 30 40 0
  19 31 40 0
  19 32 40 0
  19 33 40 0
  19 34 40 0
  19 35 40 0
  19 36 40 0
  19 37 40 0
  19 38 40 0
  19 39 40 0
  19 40 40 0
  20 1 40 0
  20 2 40 0
  20 3 40 0
  20 4 40 0
  20 5 40 0
  20 6 40 0
  20 7 40 0
  20 8 40 0
  20 9 40 0
  20 10 40 0
  20 11 40 0
  20 12 40 0
  20 13 40 0
  20 14 40 0
  20 15 40 0
  20 16 40 0
  20 17 40 0
  20 18 40 0
  20 19 40 0
  20 20 40 0
  20 21 40 0
  20 22 40 0
  20 23 40 0
  20 24 40 0
  20 25 40 0
  20 26 40 0
  20 27 40 0
  20 28 40 0
  20 29 40 0
  20 30 40 0
  20 31 40 0
  20 32 40 0
  20 33 40 0
  20 34 40 0
  20 35 40 0
  20 36 40 0
  20 37 40 0
  20 38 40 0
  20 39 40 0
  20 40 40 0
  21 1 40 0
  21 2 40 0
  21 3 40 0
  21 4 40 0
  21 5 40 0
  21 6 40 0
  21 7 40 0
  21 8 40 0
  21 9 40 0
  21 10 40 0
  21 11 40 0
  21 12 40 0
  21 13 40 0
  21 14 40 0
  21 15 40 0
  21 16 40 0
  21 17 40 0
  21 18 40 0
  21 19 40 0
  21 20 40 0
  21 21 40 0
  21 22 40 0
  21 23 40 0
  21 24 40 0
  21 25 40 0
  21 26 40 0
  21 27 40 0
  21 28 40 0
  21 29 40 0
  21 30 40 0
  21 31 40 0
  21 32 40 0
  21 33 40 0
  21 34 40 0
  21 35 40 0
  21 36 40 0
  21 37 40 0
  21 38 40 0
  21 39 40 0
  21 40 40 0
  22 1 40 0
  22 2 40 0
  22 3 40 0
  22 4 40 0
  22 5 40 0
  22 6 40 0
  22 7 40 0
  22 8 40 0
  22 9 40 0
  22 10 40 0
  22 11 40 0
  22 12 40 0
  22 13 40 0
  22 14 40 0
  22 15 40 0
  22 16 40 0
  22 17 40 0
  22 18 40 0
  22 19 40 0
  22 20 40 0
  22 21 40 0
  22 22 40 0
  22 23 40 0
  22 24 40 0
  22 25 40 0
  22 26 40 0
  22 27 40 0
  22 28 40 0
  22 29 40 0
  22 30 40 0
  22 31 40 0
  22 32 40 0
  22 33 40 0
  22 34 40 0
  22 35 40 0
  22 36 40 0
  22 37 40 0
  22 38 40 0
  22 39 40 0
  22 40 40 0
  23 1 40 0
  23 2 40 0
  23 3 40 0
  23 4 40 0
  23 5 40 0
  23 6 40 0
  23 7 40 0
  23 8 40 0
  23 9 40 0
  23 10 40 0
  23 11 40 0
  23 12 40 0
  23 13 40 0
  23 14 40 0
  23 15 40 0
  23 16 40 0
  23 17 40 0
  23 18 40 0
  23 19 40 0
  23 20 40 0
  23 21 40 0
  23 22 40 0
  23 23 40 0
  23 24 40 0
  23 25 40 0
  23 26 40 0
  23 27 40 0
  23 28 40 0
  23 29 40 0
  23 30 40 0
  23 31 40 0
  23 32 40 0
  23 33 40 0
  23 34 40 0
  23 35 40 0
  23 36 40 0
  23 37 40 0
  23 38 40 0
  23 39 40 0
  23 40 40 0
  24 1 40 0
  24 2 40 0
  24 3 40 0
  24 4 40 0
  24 5 40 0
  24 6 40 0
  24 7 40 0
  24 8 40 0
  24 9 40 0
  24 10 40 0
  24 11 40 0
  24 12 40 0
  24 13 40 0
  24 14 40 0
  24 15 40 0
  24 16 40 0
  24 17 40 0
  24 18 40 0
  24 19 40 0
  24 20 40 0
  24 21 40 0
  24 22 40 0
  24 23 40 0
  24 24 40 0
  24 25 40 0
  24 26 40 0
  24 27 40 0
  24 28 40 0
  24 29 40 0
  24 30 40 0
  24 31 40 0
  24 32 40 0
  24 33 40 0
  24 34 40 0
  24 35 40 0
  24 36 40 0
  24 37 40 0
  24 38 40 0
  24 39 40 0
  24 40 40 0
  25 1 40 0
  25 2 40 0
  25 3 40 0
  25 4 40 0
  25 5 40 0
  25 6 40 0
  25 7 40 0
  25 8 40 0
  25 9 40 0
  25 10 40 0
  25 11 40 0
  25 12 40 0
  25 13 40 0
  25 14 40 0
  25 15 40 0
  25 16 40 0
  25 17 40 0
  25 18 40 0
  25 19 40 0
  25 20 40 0
  25 21 40 0
  25 22 40 0
  25 23 40 0
  25 24 40 0
  25 25 40 0
  25 26 40 0
  25 27 40 0
  25 28 40 0
  25 29 40 0
  25 30 40 0
  25 31 40 0
  25 32 40 0
  25 33 40 0
  25 34 40 0
  25 35 40 0
  25 36 40 0
  25 37 40 0
  25 38 40 0
  25 39 40 0
  25 40 40 0
  26 1 40 0
  26 2 40 0
  26 3 40 0
  26 4 40 0
  26 5 40 0
  26 6 40 0
  26 7 40 0
  26 8 40 0
  26 9 40 0
  26 10 40 0
  26 11 40 0
  26 12 40 0
  26 13 40 0
  26 14 40 0
  26 15 40 0
  26 16 40 0
  26 17 40 0
  26 18 40 0
  26 19 40 0
  26 20 40 0
  26 21 40 0
  26 22 40 0
  26 23 40 0
  26 24 40 0
  26 25 40 0
  26 26 40 0
  26 27 40 0
  26 28 40 0
  26 29 40 0
  26 30 40 0
  26 31 40 0
  26 32 40 0
  26 33 40 0
  26 34 40 0
  26 35 40 0
  26 36 40 0
  26 37 40 0
  26 38 40 0
  26 39 40 0
  26 40 40 0
  27 1 40 0
  27 2 40 0
  27 3 40 0
  27 4 40 0
  27 5 40 0
  27 6 40 0
  27 7 40 0
  27 8 40 0
  27 9 40 0
  27 10 40 0
  27 11 40 0
  27 12 40 0
  27 13 40 0
  27 14 40 0
  27 15 40 0
  27 16 40 0
  27 17 40 0
  27 18 40 0
  27 19 40 0
  27 20 40 0
  27 21 40 0
  27 22 40 0
  27 23 40 0
  27 24 40 0
  27 25 40 0
  27 26 40 0
  27 27 40 0
  27 28 40 0
  27 29 40 0
  27 30 40 0
  27 31 40 0
  27 32 40 0
  27 33 40 0
  27 34 40 0
  27 35 40 0
  27 36 40 0
  27 37 40 0
  27 38 40 0
  27 39 40 0
  27 40 40 0
  28 1 40 0
  28 2 40 0
  28 3 40 0
  28 4 40 0
  28 5 40 0
  28 6 40 0
  28 7 40 0
  28 8 40 0
  28 9 40 0
  28 10 40 0
  28 11 40 0
  28 12 40 0
  28 13 40 0
  28 14 40 0
  28 15 40 0
  28 16 40 0
  28 17 40 0