# File generated by Flopy version 3.9.1 on 01/21/2025 at 12:01:12.
BEGIN options
END options

BEGIN griddata
  strt
    CONSTANT       1.00000000
END griddata

