# File generated by Flopy version 3.8.2 on 01/22/2025 at 11:50:56.
BEGIN options
  SAVE_FLOWS
END options

BEGIN dimensions
  MAXBOUND  798
END dimensions

BEGIN period  1
  1 1 1 100
  1 2 1 100
  1 3 1 100
  1 4 1 100
  1 5 1 100
  1 6 1 100
  1 7 1 100
  1 8 1 100
  1 9 1 100
  1 10 1 100
  1 11 1 100
  1 12 1 100
  1 13 1 100
  1 14 1 100
  1 15 1 100
  1 16 1 100
  1 17 1 100
  1 18 1 100
  1 19 1 100
  1 20 1 100
  1 21 1 100
  2 1 1 100
  2 2 1 100
  2 3 1 100
  2 4 1 100
  2 5 1 100
  2 6 1 100
  2 7 1 100
  2 8 1 100
  2 9 1 100
  2 10 1 100
  2 11 1 100
  2 12 1 100
  2 13 1 100
  2 14 1 100
  2 15 1 100
  2 16 1 100
  2 17 1 100
  2 18 1 100
  2 19 1 100
  2 20 1 100
  2 21 1 100
  3 1 1 100
  3 2 1 100
  3 3 1 100
  3 4 1 100
  3 5 1 100
  3 6 1 100
  3 7 1 100
  3 8 1 100
  3 9 1 100
  3 10 1 100
  3 11 1 100
  3 12 1 100
  3 13 1 100
  3 14 1 100
  3 15 1 100
  3 16 1 100
  3 17 1 100
  3 18 1 100
  3 19 1 100
  3 20 1 100
  3 21 1 100
  4 1 1 100
  4 2 1 100
  4 3 1 100
  4 4 1 100
  4 5 1 100
  4 6 1 100
  4 7 1 100
  4 8 1 100
  4 9 1 100
  4 10 1 100
  4 11 1 100
  4 12 1 100
  4 13 1 100
  4 14 1 100
  4 15 1 100
  4 16 1 100
  4 17 1 100
  4 18 1 100
  4 19 1 100
  4 20 1 100
  4 21 1 100
  5 1 1 100
  5 2 1 100
  5 3 1 100
  5 4 1 100
  5 5 1 100
  5 6 1 100
  5 7 1 100
  5 8 1 100
  5 9 1 100
  5 10 1 100
  5 11 1 100
  5 12 1 100
  5 13 1 100
  5 14 1 100
  5 15 1 100
  5 16 1 100
  5 17 1 100
  5 18 1 100
  5 19 1 100
  5 20 1 100
  5 21 1 100
  6 1 1 100
  6 2 1 100
  6 3 1 100
  6 4 1 100
  6 5 1 100
  6 6 1 100
  6 7 1 100
  6 8 1 100
  6 9 1 100
  6 10 1 100
  6 11 1 100
  6 12 1 100
  6 13 1 100
  6 14 1 100
  6 15 1 100
  6 16 1 100
  6 17 1 100
  6 18 1 100
  6 19 1 100
  6 20 1 100
  6 21 1 100
  7 1 1 100
  7 2 1 100
  7 3 1 100
  7 4 1 100
  7 5 1 100
  7 6 1 100
  7 7 1 100
  7 8 1 100
  7 9 1 100
  7 10 1 100
  7 11 1 100
  7 12 1 100
  7 13 1 100
  7 14 1 100
  7 15 1 100
  7 16 1 100
  7 17 1 100
  7 18 1 100
  7 19 1 100
  7 20 1 100
  7 21 1 100
  8 1 1 100
  8 2 1 100
  8 3 1 100
  8 4 1 100
  8 5 1 100
  8 6 1 100
  8 7 1 100
  8 8 1 100
  8 9 1 100
  8 10 1 100
  8 11 1 100
  8 12 1 100
  8 13 1 100
  8 14 1 100
  8 15 1 100
  8 16 1 100
  8 17 1 100
  8 18 1 100
  8 19 1 100
  8 20 1 100
  8 21 1 100
  9 1 1 100
  9 2 1 100
  9 3 1 100
  9 4 1 100
  9 5 1 100
  9 6 1 100
  9 7 1 100
  9 8 1 100
  9 9 1 100
  9 10 1 100
  9 11 1 100
  9 12 1 100
  9 13 1 100
  9 14 1 100
  9 15 1 100
  9 16 1 100
  9 17 1 100
  9 18 1 100
  9 19 1 100
  9 20 1 100
  9 21 1 100
  10 1 1 100
  10 2 1 100
  10 3 1 100
  10 4 1 100
  10 5 1 100
  10 6 1 100
  10 7 1 100
  10 8 1 100
  10 9 1 100
  10 10 1 100
  10 11 1 100
  10 12 1 100
  10 13 1 100
  10 14 1 100
  10 15 1 100
  10 16 1 100
  10 17 1 100
  10 18 1 100
  10 19 1 100
  10 20 1 100
  10 21 1 100
  11 1 1 100
  11 2 1 100
  11 3 1 100
  11 4 1 100
  11 5 1 100
  11 6 1 100
  11 7 1 100
  11 8 1 100
  11 9 1 100
  11 10 1 100
  11 11 1 100
  11 12 1 100
  11 13 1 100
  11 14 1 100
  11 15 1 100
  11 16 1 100
  11 17 1 100
  11 18 1 100
  11 19 1 100
  11 20 1 100
  11 21 1 100
  12 1 1 100
  12 2 1 100
  12 3 1 100
  12 4 1 100
  12 5 1 100
  12 6 1 100
  12 7 1 100
  12 8 1 100
  12 9 1 100
  12 10 1 100
  12 11 1 100
  12 12 1 100
  12 13 1 100
  12 14 1 100
  12 15 1 100
  12 16 1 100
  12 17 1 100
  12 18 1 100
  12 19 1 100
  12 20 1 100
  12 21 1 100
  13 1 1 100
  13 2 1 100
  13 3 1 100
  13 4 1 100
  13 5 1 100
  13 6 1 100
  13 7 1 100
  13 8 1 100
  13 9 1 100
  13 10 1 100
  13 11 1 100
  13 12 1 100
  13 13 1 100
  13 14 1 100
  13 15 1 100
  13 16 1 100
  13 17 1 100
  13 18 1 100
  13 19 1 100
  13 20 1 100
  13 21 1 100
  14 1 1 100
  14 2 1 100
  14 3 1 100
  14 4 1 100
  14 5 1 100
  14 6 1 100
  14 7 1 100
  14 8 1 100
  14 9 1 100
  14 10 1 100
  14 11 1 100
  14 12 1 100
  14 13 1 100
  14 14 1 100
  14 15 1 100
  14 16 1 100
  14 17 1 100
  14 18 1 100
  14 19 1 100
  14 20 1 100
  14 21 1 100
  15 1 1 100
  15 2 1 100
  15 3 1 100
  15 4 1 100
  15 5 1 100
  15 6 1 100
  15 7 1 100
  15 8 1 100
  15 9 1 100
  15 10 1 100
  15 11 1 100
  15 12 1 100
  15 13 1 100
  15 14 1 100
  15 15 1 100
  15 16 1 100
  15 17 1 100
  15 18 1 100
  15 19 1 100
  15 20 1 100
  15 21 1 100
  16 1 1 100
  16 2 1 100
  16 3 1 100
  16 4 1 100
  16 5 1 100
  16 6 1 100
  16 7 1 100
  16 8 1 100
  16 9 1 100
  16 10 1 100
  16 11 1 100
  16 12 1 100
  16 13 1 100
  16 14 1 100
  16 15 1 100
  16 16 1 100
  16 17 1 100
  16 18 1 100
  16 19 1 100
  16 20 1 100
  16 21 1 100
  17 1 1 100
  17 2 1 100
  17 3 1 100
  17 4 1 100
  17 5 1 100
  17 6 1 100
  17 7 1 100
  17 8 1 100
  17 9 1 100
  17 10 1 100
  17 11 1 100
  17 12 1 100
  17 13 1 100
  17 14 1 100
  17 15 1 100
  17 16 1 100
  17 17 1 100
  17 18 1 100
  17 19 1 100
  17 20 1 100
  17 21 1 100
  18 1 1 100
  18 2 1 100
  18 3 1 100
  18 4 1 100
  18 5 1 100
  18 6 1 100
  18 7 1 100
  18 8 1 100
  18 9 1 100
  18 10 1 100
  18 11 1 100
  18 12 1 100
  18 13 1 100
  18 14 1 100
  18 15 1 100
  18 16 1 100
  18 17 1 100
  18 18 1 100
  18 19 1 100
  18 20 1 100
  18 21 1 100
  19 1 1 100
  19 2 1 100
  19 3 1 100
  19 4 1 100
  19 5 1 100
  19 6 1 100
  19 7 1 100
  19 8 1 100
  19 9 1 100
  19 10 1 100
  19 11 1 100
  19 12 1 100
  19 13 1 100
  19 14 1 100
  19 15 1 100
  19 16 1 100
  19 17 1 100
  19 18 1 100
  19 19 1 100
  19 20 1 100
  19 21 1 100
  1 1 42 0
  1 2 42 0
  1 3 42 0
  1 4 42 0
  1 5 42 0
  1 6 42 0
  1 7 42 0
  1 8 42 0
  1 9 42 0
  1 10 42 0
  1 11 42 0
  1 12 42 0
  1 13 42 0
  1 14 42 0
  1 15 42 0
  1 16 42 0
  1 17 42 0
  1 18 42 0
  1 19 42 0
  1 20 42 0
  1 21 42 0
  2 1 42 0
  2 2 42 0
  2 3 42 0
  2 4 42 0
  2 5 42 0
  2 6 42 0
  2 7 42 0
  2 8 42 0
  2 9 42 0
  2 10 42 0
  2 11 42 0
  2 12 42 0
  2 13 42 0
  2 14 42 0
  2 15 42 0
  2 16 42 0
  2 17 42 0
  2 18 42 0
  2 19 42 0
  2 20 42 0
  2 21 42 0
  3 1 42 0
  3 2 42 0
  3 3 42 0
  3 4 42 0
  3 5 42 0
  3 6 42 0
  3 7 42 0
  3 8 42 0
  3 9 42 0
  3 10 42 0
  3 11 42 0
  3 12 42 0
  3 13 42 0
  3 14 42 0
  3 15 42 0
  3 16 42 0
  3 17 42 0
  3 18 42 0
  3 19 42 0
  3 20 42 0
  3 21 42 0
  4 1 42 0
  4 2 42 0
  4 3 42 0
  4 4 42 0
  4 5 42 0
  4 6 42 0
  4 7 42 0
  4 8 42 0
  4 9 42 0
  4 10 42 0
  4 11 42 0
  4 12 42 0
  4 13 42 0
  4 14 42 0
  4 15 42 0
  4 16 42 0
  4 17 42 0
  4 18 42 0
  4 19 42 0
  4 20 42 0
  4 21 42 0
  5 1 42 0
  5 2 42 0
  5 3 42 0
  5 4 42 0
  5 5 42 0
  5 6 42 0
  5 7 42 0
  5 8 42 0
  5 9 42 0
  5 10 42 0
  5 11 42 0
  5 12 42 0
  5 13 42 0
  5 14 42 0
  5 15 42 0
  5 16 42 0
  5 17 42 0
  5 18 42 0
  5 19 42 0
  5 20 42 0
  5 21 42 0
  6 1 42 0
  6 2 42 0
  6 3 42 0
  6 4 42 0
  6 5 42 0
  6 6 42 0
  6 7 42 0
  6 8 42 0
  6 9 42 0
  6 10 42 0
  6 11 42 0
  6 12 42 0
  6 13 42 0
  6 14 42 0
  6 15 42 0
  6 16 42 0
  6 17 42 0
  6 18 42 0
  6 19 42 0
  6 20 42 0
  6 21 42 0
  7 1 42 0
  7 2 42 0
  7 3 42 0
  7 4 42 0
  7 5 42 0
  7 6 42 0
  7 7 42 0
  7 8 42 0
  7 9 42 0
  7 10 42 0
  7 11 42 0
  7 12 42 0
  7 13 42 0
  7 14 42 0
  7 15 42 0
  7 16 42 0
  7 17 42 0
  7 18 42 0
  7 19 42 0
  7 20 42 0
  7 21 42 0
  8 1 42 0
  8 2 42 0
  8 3 42 0
  8 4 42 0
  8 5 42 0
  8 6 42 0
  8 7 42 0
  8 8 42 0
  8 9 42 0
  8 10 42 0
  8 11 42 0
  8 12 42 0
  8 13 42 0
  8 14 42 0
  8 15 42 0
  8 16 42 0
  8 17 42 0
  8 18 42 0
  8 19 42 0
  8 20 42 0
  8 21 42 0
  9 1 42 0
  9 2 42 0
  9 3 42 0
  9 4 42 0
  9 5 42 0
  9 6 42 0
  9 7 42 0
  9 8 42 0
  9 9 42 0
  9 10 42 0
  9 11 42 0
  9 12 42 0
  9 13 42 0
  9 14 42 0
  9 15 42 0
  9 16 42 0
  9 17 42 0
  9 18 42 0
  9 19 42 0
  9 20 42 0
  9 21 42 0
  10 1 42 0
  10 2 42 0
  10 3 42 0
  10 4 42 0
  10 5 42 0
  10 6 42 0
  10 7 42 0
  10 8 42 0
  10 9 42 0
  10 10 42 0
  10 11 42 0
  10 12 42 0
  10 13 42 0
  10 14 42 0
  10 15 42 0
  10 16 42 0
  10 17 42 0
  10 18 42 0
  10 19 42 0
  10 20 42 0
  10 21 42 0
  11 1 42 0
  11 2 42 0
  11 3 42 0
  11 4 42 0
  11 5 42 0
  11 6 42 0
  11 7 42 0
  11 8 42 0
  11 9 42 0
  11 10 42 0
  11 11 42 0
  11 12 42 0
  11 13 42 0
  11 14 42 0
  11 15 42 0
  11 16 42 0
  11 17 42 0
  11 18 42 0
  11 19 42 0
  11 20 42 0
  11 21 42 0
  12 1 42 0
  12 2 42 0
  12 3 42 0
  12 4 42 0
  12 5 42 0
  12 6 42 0
  12 7 42 0
  12 8 42 0
  12 9 42 0
  12 10 42 0
  12 11 42 0
  12 12 42 0
  12 13 42 0
  12 14 42 0
  12 15 42 0
  12 16 42 0
  12 17 42 0
  12 18 42 0
  12 19 42 0
  12 20 42 0
  12 21 42 0
  13 1 42 0
  13 2 42 0
  13 3 42 0
  13 4 42 0
  13 5 42 0
  13 6 42 0
  13 7 42 0
  13 8 42 0
  13 9 42 0
  13 10 42 0
  13 11 42 0
  13 12 42 0
  13 13 42 0
  13 14 42 0
  13 15 42 0
  13 16 42 0
  13 17 42 0
  13 18 42 0
  13 19 42 0
  13 20 42 0
  13 21 42 0
  14 1 42 0
  14 2 42 0
  14 3 42 0
  14 4 42 0
  14 5 42 0
  14 6 42 0
  14 7 42 0
  14 8 42 0
  14 9 42 0
  14 10 42 0
  14 11 42 0
  14 12 42 0
  14 13 42 0
  14 14 42 0
  14 15 42 0
  14 16 42 0
  14 17 42 0
  14 18 42 0
  14 19 42 0
  14 20 42 0
  14 21 42 0
  15 1 42 0
  15 2 42 0
  15 3 42 0
  15 4 42 0
  15 5 42 0
  15 6 42 0
  15 7 42 0
  15 8 42 0
  15 9 42 0
  15 10 42 0
  15 11 42 0
  15 12 42 0
  15 13 42 0
  15 14 42 0
  15 15 42 0
  15 16 42 0
  15 17 42 0
  15 18 42 0
  15 19 42 0
  15 20 42 0
  15 21 42 0
  16 1 42 0
  16 2 42 0
  16 3 42 0
  16 4 42 0
  16 5 42 0
  16 6 42 0
  16 7 42 0
  16 8 42 0
  16 9 42 0
  16 10 42 0
  16 11 42 0
  16 12 42 0
  16 13 42 0
  16 14 42 0
  16 15 42 0
  16 16 42 0
  16 17 42 0
  16 18 42 0
  16 19 42 0
  16 20 42 0
  16 21 42 0
  17 1 42 0
  17 2 42 0
  17 3 42 0
  17 4 42 0
  17 5 42 0
  17 6 42 0
  17 7 42 0
  17 8 42 0
  17 9 42 0
  17 10 42 0
  17 11 42 0
  17 12 42 0
  17 13 42 0
  17 14 42 0
  17 15 42 0
  17 16 42 0
  17 17 42 0
  17 18 42 0
  17 19 42 0
  17 20 42 0
  17 21 42 0
  18 1 42 0
  18 2 42 0
  18 3 42 0
  18 4 42 0
  18 5 42 0
  18 6 42 0
  18 7 42 0
  18 8 42 0
  18 9 42 0
  18 10 42 0
  18 11 42 0
  18 12 42 0
  18 13 42 0
  18 14 42 0
  18 15 42 0
  18 16 42 0
  18 17 42 0
  18 18 42 0
  18 19 42 0
  18 20 42 0
  18 21 42 0
  19 1 42 0
  19 2 42 0
  19 3 42 0
  19 4 42 0
  19 5 42 0
  19 6 42 0
  19 7 42 0
  19 8 42 0
  19 9 42 0
  19 10 42 0
  19 11 42 0
  19 12 42 0
  19 13 42 0
  19 14 42 0
  19 15 42 0
  19 16 42 0
  19 17 42 0
  19 18 42 0
  19 19 42 0
  19 20 42 0
  19 21 42 0
END period  1

