# File generated by Flopy version 3.9.2 on 06/10/2025 at 16:30:27.
BEGIN options
  SAVE_FLOWS
  SAVE_SPECIFIC_DISCHARGE
  SAVE_SATURATION
END options

BEGIN griddata
  icelltype
    CONSTANT  0
  k  LAYERED
    INTERNAL  FACTOR  1.0
      5.58678366E-05  7.65258228E-05  8.28808552E-05  8.13414590E-05  8.65137554E-05  7.61052099E-05  7.61052099E-05  7.61052099E-05  7.61052099E-05  7.61052099E-05  7.61052099E-05  7.61052099E-05  7.61052099E-05  7.61052099E-05  7.61052099E-05  7.61052099E-05  1.29858120E-06  1.91910067E-06  1.08878362E-06  1.43180034E-04  2.04824973E-04  3.49106675E-04  3.50541726E-04  3.31678486E-04  3.43972439E-04  3.24240042E-04  3.46495042E-04  3.96575080E-04  5.20627422E-04  6.20924286E-04  7.90403166E-04  8.02783470E-04  8.10636790E-04  7.10226246E-04  5.55527862E-04  3.17083497E-04  2.43219314E-04  2.08127502E-04  1.51968896E-04  1.47103594E-04  1.50289299E-04  1.55551388E-04  1.32585337E-04  1.10218636E-04  9.63391285E-05  9.36724318E-05  9.44789281E-05  4.48080027E-05  6.01828788E-07  5.82562109E-07  7.00375153E-07  7.61052099E-05  7.61052099E-05  7.61052099E-05  7.61052099E-05  7.61052099E-05  1.39754775E-06  1.51749691E-06  1.48956053E-06  1.48693528E-06  1.48119796E-06  1.50966389E-06  1.56404406E-06  1.36125232E-06  1.45978356E-06  1.45932233E-06  1.18301648E-06  1.22070219E-06  1.01056992E-06  1.21156643E-06  1.04670505E-06  8.59000011E-07  5.47066634E-07  4.26945832E-07  3.04654492E-07  3.60215211E-07  3.67588342E-07  3.97115855E-07  4.03107691E-07  6.02198315E-06  7.10211543E-06  1.51250961E-05  1.65762813E-05  2.42687238E-05  3.09327988E-05  3.14854951E-05  2.83692207E-05  2.70701184E-05  2.91724973E-05  3.34066535E-05  3.33060452E-05  1.62808574E-05  1.61957851E-05  3.77179931E-05  4.38341340E-05  9.28157751E-05  1.59998803E-04  3.24117427E-04  5.26988937E-04  6.82753569E-04  8.37143627E-04  7.63276126E-04  6.33732765E-04  6.07530645E-04  5.34682535E-04  4.43743455E-04  3.55109805E-04  2.47727818E-04  7.61052099E-05  7.61052099E-05  7.61052099E-05  7.61052099E-05  7.61052099E-05  7.61052099E-05  7.61052099E-05  7.61052099E-05  8.35432274E-07  8.81917344E-07  8.91566401E-07  8.07121125E-07  7.01965917E-07  5.65546770E-07  4.61631828E-07  3.74479640E-07  3.33258754E-07  3.14101811E-07  3.23149180E-07  3.63598986E-07  4.03488059E-07  4.70251507E-07  5.48419450E-07  5.11396649E-07  4.70852058E-07  4.17869188E-07  4.66752283E-07  4.92465347E-07  4.56400500E-07  5.26259328E-07  6.03510955E-07  3.97220583E-06
      7.24788770E-05  7.00334058E-05  9.25979111E-05  1.09067769E-04  5.06988399E-05  6.71455609E-07  7.61052099E-05  7.61052099E-05  7.61052099E-05  7.61052099E-05  7.61052099E-05  7.61052099E-05  7.61052099E-05  7.61052099E-05  7.61052099E-05  7.61052099E-05  1.86810348E-06  2.59952003E-06  1.21124089E-04  2.40166875E-04  2.62896763E-04  2.72101955E-04  2.94306141E-04  3.31440009E-04  3.47753405E-04  3.85033840E-04  4.41211800E-04  5.70066797E-04  8.38240143E-04       0.00107759       0.00123932  9.91457258E-04  8.51538498E-04  6.75851072E-04  5.47552831E-04  2.74055608E-04  1.99868125E-04  1.68211991E-04  1.51380649E-04  1.13600574E-04  1.09572997E-04  1.27823427E-04  1.26723186E-04  9.46977452E-05  9.65435611E-05  9.81611374E-05  8.32912847E-05  4.90761631E-05  4.36605915E-05  7.28078589E-07  8.46860928E-07  8.90407421E-07  8.41235703E-07  8.23828486E-07  1.12643420E-06  1.36686458E-06  1.62945184E-06  1.76766389E-06  1.72627608E-06  1.55572889E-06  1.50465632E-06  1.57260502E-06  1.35348807E-06  1.11457268E-06  1.13661667E-06  1.15883017E-06  1.01009505E-06  1.02276374E-06  1.06633058E-06  7.89177193E-07  6.98845383E-07  4.97808401E-07  4.16824548E-07  3.24358751E-07  3.16977292E-07  3.32569698E-07  3.27648564E-07  3.86056200E-07  4.09044560E-07  5.08397818E-07  5.12833083E-07  4.57941240E-07  7.72477870E-06  1.00241641E-05  1.23344425E-05  1.39170179E-05  1.13023771E-05  1.18961916E-05  1.38874420E-05  1.78486189E-05  1.82264612E-05  2.60680281E-05  3.26673508E-05  7.09798041E-05  7.71565174E-05  1.13313516E-04  2.40770911E-04  4.45286685E-04  6.76159805E-04  8.16784566E-04  9.37329605E-04  8.14467494E-04  7.80088478E-04  7.24072743E-04  6.59189769E-04  5.21160837E-04  3.95066134E-04  2.89438671E-04  1.91548927E-04  7.61052099E-05  7.61052099E-05  7.61052099E-05  7.61052099E-05  7.61052099E-05  7.61052099E-05  7.61052099E-05  9.06469324E-07  8.83553639E-07  8.98194457E-07  8.59150816E-07  6.62964965E-07  5.42412806E-07  4.52354243E-07  4.06222313E-07  3.22105535E-07  2.73659765E-07  1.58813400E-05  2.00655140E-05  4.59458249E-07  4.96776920E-07  5.24276402E-07  5.36780078E-07  4.80859057E-07  4.30356778E-07  4.34196437E-07  3.96735203E-07  3.17716598E-07  3.26533780E-07  3.70569609E-07  4.22541325E-06
      4.35183756E-05  6.85728228E-05  6.16597390E-05  8.86316193E-05  4.54410983E-05  1.11456654E-06  1.15419255E-06  1.51748270E-06  7.61052099E-05  7.61052099E-05  7.61052099E-05  7.61052099E-05  7.61052099E-05  7.61052099E-05  7.61052099E-05  7.61052099E-05  2.39658016E-06  1.78017246E-04  1.71616673E-04  2.06778903E-04  2.38035311E-04  2.51977879E-04  2.68824311E-04  3.20524385E-04  3.78347817E-04  4.53800691E-04  5.37541171E-04  7.63907272E-04       0.00118832       0.00137542       0.00153276       0.00134184       0.00101605  8.22489383E-04  5.13068517E-04  2.07958001E-04  1.77084963E-04  1.22912301E-04  9.57408192E-05  6.73217728E-05  6.46772096E-05  8.11140126E-05  9.58401433E-05  8.83737666E-05  9.33981210E-05  8.78178180E-05  8.04991287E-05  6.83331964E-05  3.63398103E-05  9.34561797E-07  9.05378045E-07  8.62890545E-07  8.67704216E-07  1.01927594E-06  1.26952500E-06  1.61197568E-06  1.87500382E-06  2.17244155E-06  2.15085993E-06  1.90473929E-06  1.75752302E-06  1.53144117E-06  1.24072039E-06  9.82043048E-07  9.45705892E-07  7.22212462E-07  7.11933126E-07  7.17080013E-07  6.71244152E-07  5.78536799E-07  4.93107223E-07  3.81278596E-07  3.27946196E-07  2.25461051E-07  2.33173040E-07  2.58664244E-07  2.56826752E-07  3.68376305E-07  3.55905485E-07  4.90981108E-07  3.89129895E-07  4.83698784E-07  5.76873049E-07  7.40206076E-07  6.39722998E-07  5.42789792E-07  5.95187146E-07  5.28692397E-07  4.27481865E-07  4.60457841E-07  3.17845588E-05  3.92604525E-05  5.34314786E-05  1.29254491E-04  1.45235492E-04  1.94250853E-04  3.77609045E-04  4.67234291E-04  8.28322431E-04  9.19821905E-04  8.70673044E-04  8.46858777E-04  8.40595167E-04  7.69202481E-04  7.52667198E-04  6.21403044E-04  4.48405626E-04  3.34889424E-04  2.31510203E-04  7.61052099E-05  7.61052099E-05  7.61052099E-05  7.61052099E-05  7.61052099E-05  7.61052099E-05  7.61052099E-05  1.00970885E-06  1.02116746E-06  1.23827874E-06  1.16491231E-06  9.06394860E-07  6.34465323E-07  4.55725257E-07  3.75251204E-07  3.08904106E-07  1.12177622E-05  1.36088956E-05  3.76708231E-05  4.75708948E-05  4.53961111E-05  4.96303471E-07  4.83030135E-07  4.52353049E-07  4.29504723E-07  4.23692597E-07  3.24748441E-07  2.43070190E-07  2.36043434E-07  2.55542915E-07  4.82181213E-06
      4.04831444E-05  4.88556325E-05  5.73691796E-05  3.49133297E-05  2.57886713E-05  3.23380118E-05  2.19870367E-06  2.74241938E-06  2.73002593E-06  2.28414979E-06  7.61052099E-05  7.61052099E-05  7.61052099E-05  7.61052099E-05  7.61052099E-05  2.85180363E-06  1.11919588E-04  1.39220050E-04  1.38569332E-04  1.50504668E-04  1.84894074E-04  2.20088696E-04  2.50806013E-04  3.34598648E-04  3.83843872E-04  4.89347265E-04  6.41280552E-04  8.23560345E-04       0.00116298       0.00149665       0.00144356       0.00128053       0.00109677  8.14305793E-04  3.71944770E-04  1.78980743E-04  1.22695681E-04  5.43488459E-05  3.73565053E-05  5.04979880E-07  7.21906190E-07  5.59648179E-05  4.95007298E-05  5.19561581E-05  8.64853573E-05  8.77278726E-05  7.35855720E-05  6.36159239E-05  3.21181760E-05  1.13619717E-06  1.12780128E-06  1.17810066E-06  1.28898910E-06  1.46405637E-06  1.77151344E-06  2.05565948E-06  2.23763004E-06  2.53680810E-06  2.60155866E-06  2.32474849E-06  2.04478965E-06  1.74766546E-06  1.31505726E-06  1.00521527E-06  6.35371237E-07  5.45923228E-07  5.29191539E-07  6.07856180E-07  6.05791456E-07  4.50116119E-07  3.83862812E-07  2.74071652E-07  2.24655878E-07  1.75507992E-07  1.66718991E-07  1.76308390E-07  2.21943083E-07  2.83344178E-07  3.29262235E-07  4.86388785E-07  3.53257747E-07  4.07587322E-07  4.34106170E-07  6.08107996E-07  5.18571881E-07  6.02216858E-07  4.48092180E-07  3.41461856E-07  4.31588347E-07  4.75274845E-07  5.22863775E-05  7.07805812E-05  9.05057823E-05  1.18330056E-04  1.49863379E-04  3.43366381E-04  5.76492108E-04  7.78486195E-04  9.32179450E-04  9.54892545E-04  9.04338609E-04  8.68559757E-04  9.47906345E-04  8.63999128E-04  7.35307229E-04  6.42982195E-04  5.17937413E-04  3.36413621E-04  2.17463661E-04  1.44332531E-04  7.61052099E-05  7.61052099E-05  7.61052099E-05  7.61052099E-05  7.61052099E-05  8.85805946E-07  1.13621581E-06  1.15955652E-06  1.39935219E-06  1.35116079E-06  1.05438448E-06  7.53365555E-07  4.91021069E-07  3.43403741E-07  3.13873585E-07  1.22781448E-05  2.98716932E-05  3.97357398E-05  3.77316755E-05  5.18346751E-05  4.27945110E-07  3.96293785E-07  3.78996333E-07  3.61527384E-07  3.88114756E-07  2.85451335E-07  2.29494589E-07  2.32758907E-07  2.25356018E-07  5.45084094E-06
      3.10982905E-05  4.88977748E-05  2.65382259E-05  2.98528539E-05  3.59804362E-05  2.18695022E-05  3.83952756E-05  3.82440476E-06  3.88554145E-06  3.31525439E-06  2.83205213E-06  7.61052099E-05  7.61052099E-05  3.31759225E-06  3.55483076E-06  3.47124978E-06  1.04000952E-04  1.02580801E-04  1.09139088E-04  1.19703545E-04  1.48384439E-04  1.76329413E-04  2.16764922E-04  7.61052099E-05  7.61052099E-05  7.61052099E-05  7.61052099E-05  7.61052099E-05  7.61052099E-05       0.00151227       0.00130837       0.00105481  9.18007281E-04  6.60451129E-04  4.22780431E-07  3.72537102E-07  3.99683302E-07  4.31650307E-07  3.94439297E-07  4.29865167E-07  5.21337256E-07  7.60350474E-07  1.01313321E-06  3.23940876E-05  3.49289367E-05  3.43579341E-05  3.44091968E-05  2.84498128E-05  2.54675688E-05  1.62927404E-06  1.72713601E-06  1.87877265E-06  2.09219957E-06  2.33924106E-06  2.64472260E-06  2.88997990E-06  2.40531926E-06  2.40687109E-06  3.19930632E-06  2.93270455E-06  2.33873834E-06  1.89600212E-06  1.40602822E-06  8.39409950E-07  6.26953920E-07  5.02508612E-07  4.58817482E-07  4.25201478E-07  4.19562099E-07  3.10307371E-07  2.44771087E-07  1.97023738E-07  1.99503845E-07  1.73747310E-07  1.45365718E-07  1.77085326E-07  1.53904423E-07  1.32244850E-07  2.15353751E-07  2.61391591E-07  2.26075827E-07  4.57947266E-07  5.50194784E-07  4.46754512E-07  5.82698704E-07  4.64195921E-07  5.78671518E-07  4.07099520E-07  4.56850330E-07  4.66750492E-07  4.79619359E-07  1.03584629E-04  1.34235350E-04  1.61932941E-04  1.97918213E-04  4.57747985E-04  7.54234206E-04  7.01987592E-04  8.17155873E-04  9.41030157E-04       0.00106543  9.83895152E-04  9.26235050E-04  8.44247930E-04  7.88757461E-04  6.90411311E-04  5.27646975E-04  3.20120162E-04  2.11042468E-04  1.34065514E-04  4.58041569E-07  7.61052099E-05  7.61052099E-05  6.44620002E-07  7.54266580E-07  9.51203219E-07  1.16719775E-06  1.28799832E-06  1.56582337E-06  1.59184810E-06  1.34301672E-06  1.06258096E-06  6.29667284E-07  4.47086450E-07  7.80308801E-06  1.00581383E-05  1.99096521E-05  4.98227600E-05  3.53334581E-05  5.13620478E-07  4.38724499E-07  4.22282625E-07  3.82646732E-07  3.36722564E-07  2.96908695E-07  2.38885320E-07  1.96455588E-07  2.13858883E-07  6.21579147E-06  6.45688715E-06
      3.55281772E-05  4.63183242E-05  3.02766530E-05  2.80453387E-05  2.96930866E-05  3.73534749E-05  3.13774362E-05  3.79497906E-05  4.00446152E-06  3.63985532E-06  3.50342134E-06  3.57792169E-06  3.84800887E-06  3.72707154E-06  3.53298174E-06  7.09274245E-05  1.04022984E-04  8.38968990E-05  7.77920795E-05  8.49114076E-05  1.00032121E-04  7.61052099E-05  7.61052099E-05  7.61052099E-05  7.61052099E-05  7.61052099E-05  7.61052099E-05  7.61052099E-05  7.61052099E-05  7.61052099E-05  7.61052099E-05  7.74868240E-04  6.40195445E-04  5.13281122E-07  7.61052099E-05  7.61052099E-05  7.61052099E-05  3.90882946E-07  7.61052099E-05  7.61052099E-05  7.61052099E-05  7.61052099E-05  7.61052099E-05  1.21979554E-06  1.72623015E-06  2.23401116E-06  3.00515003E-05  2.47862545E-06  2.25792246E-06  2.30555929E-06  2.59142439E-06  2.89140303E-06  3.45320836E-06  3.38219752E-06  3.74249930E-06  3.53707401E-06  3.03716206E-06  2.84304633E-06  2.56273847E-06  2.99459930E-06  2.30097680E-06  1.63463937E-06  9.43743828E-07  8.18893625E-07  5.76748846E-07  4.53945859E-07  3.93459374E-07  3.21928241E-07  2.99970225E-07  2.30906835E-07  1.94040780E-07  1.73855383E-07  1.87368826E-07  1.82104557E-07  1.72482373E-07  1.81236146E-07  1.23473129E-07  1.47946110E-07  2.22947733E-07  2.61709772E-07  3.26208266E-07  3.00511999E-07  6.16322552E-07  5.36060895E-07  7.45916623E-07  5.66839049E-07  6.98061342E-07  4.57889854E-07  4.81045788E-07  4.67580605E-07  1.51454034E-04  2.98053259E-04  2.16213099E-04  2.47157674E-04  2.64721661E-04  2.99959793E-04  2.91775534E-04  5.61626337E-04  8.33287544E-04       0.00102524       0.00118429       0.00103433       0.00105590  9.49966139E-04  8.14198866E-04  7.14387977E-04  5.35594765E-04  3.57730722E-04  1.49352549E-04  8.72484743E-05  3.67926586E-05  3.08359740E-05  5.44145905E-07  5.33654429E-07  7.08767004E-07  1.02894001E-06  1.35179471E-06  1.60229956E-06  1.68684221E-06  6.32601223E-06  1.65284075E-06  1.28515592E-06  6.46964509E-06  6.25770781E-07  5.42116595E-07  5.56023735E-07  5.30257523E-07  5.38755160E-07  5.68597045E-07  5.31453509E-07  7.61052099E-05  7.61052099E-05  7.61052099E-05  3.76665099E-07  2.78979854E-07  1.96554055E-07  1.68513466E-07  1.66789434E-07  6.14191595E-06  1.24447051E-05
      2.05714914E-05  3.14910940E-05  1.61181943E-05  2.80002296E-05  3.39233666E-05  5.05709322E-05  6.01472748E-05  6.41830920E-05  4.47528255E-05  3.08307335E-06  2.99587805E-06  3.46263869E-06  3.58771467E-06  3.64646189E-06  3.62441278E-06  7.49353567E-05  1.02413724E-04  7.76511151E-05  5.85653543E-05  5.10041318E-05  7.61052099E-05  7.61052099E-05  7.61052099E-05  7.61052099E-05  7.61052099E-05  7.61052099E-05  7.61052099E-05  7.61052099E-05  7.61052099E-05  7.61052099E-05  7.61052099E-05  7.61052099E-05  7.61052099E-05  7.61052099E-05  7.61052099E-05  7.61052099E-05  7.61052099E-05  7.61052099E-05  7.61052099E-05  7.61052099E-05  7.61052099E-05  7.61052099E-05  7.61052099E-05  7.61052099E-05  7.61052099E-05  1.95518237E-06  2.36550454E-06  2.60658499E-06  2.54719680E-06  2.91448964E-06  2.97909992E-06  3.97098165E-06  4.59623334E-06  4.53771190E-06  4.96659231E-06  5.12899715E-06  3.82077314E-06  3.61434581E-06  2.73514047E-06  2.48253741E-06  1.98470184E-06  1.50680523E-06  1.03168384E-06  6.81092217E-07  4.54322674E-07  3.35821568E-07  2.72616717E-07  2.41534337E-07  2.18767084E-07  1.67409965E-07  1.55384029E-07  1.66000788E-07  1.96006582E-07  1.89497754E-07  1.83986131E-07  2.49355423E-07  1.78580990E-07  1.56389120E-07  1.98054920E-07  2.83732163E-07  3.50209035E-07  4.43336148E-07  8.77435468E-07  7.74283592E-07  9.08842935E-07  5.62166576E-07  6.95237418E-07  4.52796172E-07  3.75293922E-07  1.17476935E-04  1.56782960E-04  5.07747522E-04  4.65947815E-04  2.26333112E-04  2.51734746E-04  2.80856970E-04  2.90365162E-04  3.14760720E-04  8.89968476E-04       0.00106816       0.00103499       0.00108934  9.85971186E-04       0.00104675  9.97465337E-04  7.07696541E-04  5.67706767E-04  3.18182952E-04  1.38078351E-04  5.35532199E-05  5.51238081E-05  4.45701698E-05  3.83206570E-05  5.39293637E-07  7.48758055E-07  1.16913429E-06  1.71594729E-06  8.50797733E-06  8.13113911E-06  1.40400834E-05  9.80312598E-06  1.63977220E-05  9.70705742E-07  8.27183953E-07  7.01261570E-07  6.43080284E-07  7.61052099E-05  7.61052099E-05  7.61052099E-05  7.61052099E-05  7.61052099E-05  7.61052099E-05  7.61052099E-05  7.61052099E-05  7.61052099E-05  1.87224515E-07  1.58307586E-07  1.48595348E-07  5.44619161E-06  9.92736022E-06
      2.98586383E-05  7.29380019E-07  1.74865036E-05  3.35237164E-05  5.26409422E-05  6.20541323E-05  8.01950955E-05  7.79140610E-05  7.49912579E-05  2.63444031E-06  2.34236836E-06  2.38943016E-06  3.17334320E-06  3.75673949E-06  4.33200657E-05  8.09099947E-05  8.32542355E-05  6.40088183E-05  5.26390577E-05  4.28535786E-05  7.61052099E-05  7.61052099E-05  7.61052099E-05  7.61052099E-05  7.61052099E-05  7.61052099E-05  7.61052099E-05  7.61052099E-05  7.61052099E-05  7.61052099E-05  7.61052099E-05  7.61052099E-05  7.61052099E-05  7.61052099E-05  7.61052099E-05  7.61052099E-05  7.61052099E-05  7.61052099E-05  7.61052099E-05  7.61052099E-05  7.61052099E-05  7.61052099E-05  7.61052099E-05  7.61052099E-05  7.61052099E-05  1.83013094E-06  2.28041358E-06  2.42222723E-06  2.57422062E-06  3.29525096E-06  3.56165833E-06  3.80844108E-06  4.30772843E-06  4.44949455E-06  4.77220692E-06  4.60439696E-06  3.79800076E-06  4.00311137E-06  2.78669472E-06  2.39895212E-06  1.91603635E-06  1.16749845E-06  9.38519122E-07  6.43646160E-07  3.79888462E-07  2.73468657E-07  2.33278385E-07  1.84294862E-07  1.68795879E-07  1.47121824E-07  1.49169139E-07  1.54612792E-07  1.79415792E-07  2.13006089E-07  2.30718072E-07  3.29608440E-07  4.71982105E-07  1.67305345E-07  1.64528558E-07  2.52221696E-07  4.24936161E-07  1.24058715E-06  1.11969655E-06  1.57078955E-06  1.22473557E-06  9.58657893E-07  7.05523917E-07  5.93746847E-07  4.20661877E-07  1.18563556E-04  2.85715301E-04  5.36108506E-04  5.13863401E-04  2.59851688E-04  2.76200997E-04  3.03150562E-04  2.91783188E-04  2.79124069E-04  4.49306099E-04  7.29287509E-04  8.00996437E-04       0.00113006       0.00101342       0.00104798  6.25944813E-04  6.05317065E-04  5.09630307E-04  2.15894455E-04  8.94565455E-05  1.05420542E-04  3.32422933E-05  5.18351590E-05  4.57514689E-05  2.15648597E-05  1.54186801E-05  2.08022393E-05  1.21111661E-05  2.13230360E-05  2.02066713E-05  2.34522468E-05  2.18562054E-05  2.11924726E-05  1.70176027E-05  9.88898023E-07  7.61052099E-05  7.61052099E-05  7.61052099E-05  7.61052099E-05  7.61052099E-05  7.61052099E-05  7.61052099E-05  7.61052099E-05  7.61052099E-05  7.61052099E-05  7.61052099E-05  1.87954242E-07  1.47501765E-07  1.59747501E-07  5.39121220E-06  9.08157472E-06
      4.83891199E-07  2.98642499E-05  2.45993269E-05  2.20627026E-05  4.57927999E-05  9.66305015E-05  1.08091845E-04  9.18221485E-05  5.98505176E-05  3.88152475E-05  4.81786192E-05  5.34519968E-05  2.35918787E-06  4.07216357E-05  6.25403263E-05  6.79304794E-05  7.11775428E-05  5.45473013E-05  4.48211904E-05  3.72507093E-05  7.61052099E-05  7.61052099E-05  7.61052099E-05  7.61052099E-05  7.61052099E-05  7.61052099E-05  7.61052099E-05  7.61052099E-05  7.61052099E-05  7.61052099E-05  7.61052099E-05  7.61052099E-05  7.61052099E-05  7.61052099E-05  7.61052099E-05  7.61052099E-05  7.61052099E-05  7.61052099E-05  7.61052099E-05  7.61052099E-05  7.61052099E-05  7.61052099E-05  7.61052099E-05  7.61052099E-05  7.61052099E-05  7.61052099E-05  2.04282969E-06  2.30763089E-06  1.19695633E-05  3.08012545E-06  3.10036171E-06  3.26366057E-06  3.62597734E-06  3.62635728E-06  4.00711588E-06  3.43033935E-06  2.60740126E-06  2.69132101E-06  1.96114024E-06  1.80182735E-06  1.22129757E-06  8.40754694E-07  6.56443660E-07  4.75686647E-07  3.57583218E-07  2.35285214E-07  1.80573252E-07  1.43543403E-07  1.43330936E-07  1.55067085E-07  1.39973551E-07  1.52320524E-07  1.83793887E-07  2.48148780E-07  2.97277012E-07  4.36892094E-07  3.46647568E-07  4.07696376E-07  4.26980932E-07  6.64509798E-07  1.14745899E-06  1.18415528E-06  1.02080969E-06  1.41647661E-06  1.19454364E-06  9.31627881E-07  9.07404001E-07  7.09739084E-07  8.89577277E-05  1.97441157E-04  2.45623785E-04  4.64447978E-04  4.56928043E-04  2.42855356E-04  2.75692350E-04  3.26032432E-06  4.97196015E-06  7.28457235E-06  3.15645622E-04  5.65232069E-04  6.87876425E-04  6.16203062E-04  7.34031841E-04  3.57943558E-04  3.45400476E-04  3.75471602E-04  3.90745641E-04  1.29450767E-04  1.53819827E-04  4.93168482E-05  5.68816795E-05  4.62416283E-05  4.28818894E-05  3.09138668E-05  3.27725211E-05  2.99176081E-05  2.93352696E-05  3.02323842E-05  2.88345709E-05  3.55617958E-05  3.86262363E-05  4.61891323E-05  5.15667816E-05  6.80648591E-05  7.61052099E-05  7.61052099E-05  7.61052099E-05  7.61052099E-05  7.61052099E-05  7.61052099E-05  7.61052099E-05  7.61052099E-05  7.61052099E-05  7.61052099E-05  7.61052099E-05  2.09580122E-07  1.70313797E-07  1.72698677E-07  6.84353927E-06  1.52427237E-05
      6.40826670E-07  3.85222193E-05  3.66856875E-05  6.12544973E-05  8.61552617E-05  7.83864380E-05  7.72905114E-05  7.89812912E-05  5.98463339E-05  6.08756964E-05  4.16615949E-05  4.42784440E-05  7.19011296E-05  6.32493247E-05  6.72266178E-05  6.41182705E-05  4.53013636E-05  4.25742182E-05  4.15246759E-05  4.23766105E-05  7.61052099E-05  7.61052099E-05  7.61052099E-05  7.61052099E-05  7.61052099E-05  7.61052099E-05  7.61052099E-05  7.61052099E-05  7.61052099E-05  7.61052099E-05  7.61052099E-05  7.61052099E-05  7.61052099E-05  7.61052099E-05  7.61052099E-05  7.61052099E-05  7.61052099E-05  7.61052099E-05  7.61052099E-05  7.61052099E-05  7.61052099E-05  7.61052099E-05  7.61052099E-05  7.61052099E-05  7.61052099E-05  7.61052099E-05  7.61052099E-05  1.71829186E-06  1.94083100E-06  1.19999804E-05  2.35780658E-06  2.43896216E-06  2.54861970E-06  2.47198477E-06  2.24897462E-06  1.25876559E-05  2.03021591E-06  1.63764275E-06  1.47509991E-06  1.19265587E-06  8.87722592E-07  7.51868356E-07  5.86152964E-07  4.24353999E-07  2.77722989E-07  2.57485311E-07  1.95807146E-07  1.29296382E-07  1.27168647E-07  1.36871236E-07  1.54905194E-07  1.55339748E-07  1.83027893E-07  2.30880730E-07  3.19663513E-07  4.66952656E-07  4.37294602E-07  3.73287264E-07  5.25233531E-07  7.78765866E-07  1.08067707E-06  1.32154230E-06  1.79123481E-06  1.49683547E-06  1.26726445E-06  9.63601451E-07  1.01283365E-06  8.41059375E-07  7.91832208E-05  8.68298739E-05  1.97249712E-04  3.45085369E-04  2.51159596E-04  1.66040132E-04  1.84850137E-06  3.64875200E-06  5.96928840E-06  8.44219903E-06  9.20082493E-06  2.60330620E-04  3.05957336E-04  3.93482216E-04  2.06576919E-06  1.36034510E-06  9.67052301E-07  6.38902350E-07  4.41935839E-07  2.63464074E-07  7.23350386E-05  1.59625301E-07  3.55233242E-05  6.70116133E-05  7.14350244E-05  5.69950862E-05  4.54240944E-05  3.91150279E-05  4.29333995E-05  3.54174153E-05  3.54106814E-05  3.76311145E-05  4.61734126E-05  5.17537919E-05  6.43235835E-05  8.30664212E-05  7.61052099E-05  7.61052099E-05  7.61052099E-05  7.61052099E-05  7.61052099E-05  7.61052099E-05  7.61052099E-05  7.61052099E-05  7.61052099E-05  7.61052099E-05  7.61052099E-05  1.81956594E-07  1.65689030E-07  2.00528532E-07  1.08886070E-05  2.45665324E-05
      7.70401869E-07  5.27041557E-05  5.32999074E-05  7.40272808E-05  1.05177540E-04  9.37085351E-05  8.56246115E-05  8.05687741E-05  6.25398752E-05  6.41485894E-05  4.06795007E-05  4.10904213E-05  8.28775155E-05  6.97855357E-05  6.40334401E-05  3.99389464E-05  3.40006154E-05  3.25656729E-05  3.31088704E-05  3.78378245E-05  7.61052099E-05  7.61052099E-05  7.61052099E-05  7.61052099E-05  7.61052099E-05  7.61052099E-05  7.61052099E-05  7.61052099E-05  7.61052099E-05  7.61052099E-05  7.61052099E-05  7.61052099E-05  7.61052099E-05  7.61052099E-05  7.61052099E-05  7.61052099E-05  7.61052099E-05  7.61052099E-05  7.61052099E-05  7.61052099E-05  7.61052099E-05  7.61052099E-05  7.61052099E-05  7.61052099E-05  7.61052099E-05  7.61052099E-05  7.61052099E-05  7.61052099E-05  7.61052099E-05  1.58922785E-06  1.80643692E-05  1.61088178E-06  1.61900959E-06  1.36962190E-05  1.62936249E-05  1.21022993E-06  1.57682152E-05  8.75128876E-07  7.92785556E-07  7.23358482E-07  7.24911445E-07  5.86456338E-07  5.74001376E-07  4.32297384E-07  2.89122710E-07  3.26486628E-07  2.76808407E-07  1.33306457E-07  1.30318412E-07  1.51056156E-07  1.80065726E-07  1.71194174E-07  1.97576739E-07  2.34152168E-07  2.92839303E-07  4.34529824E-07  4.61527122E-07  6.84175632E-07  8.91069305E-07  1.15453395E-06  1.74319348E-06  1.93109054E-06  1.57400063E-06  1.20155278E-06  1.17997479E-06  9.92858986E-07  1.10071471E-06  9.58817623E-07  7.73987438E-07  7.48114035E-05  1.59059811E-04  1.72286163E-04  1.67702034E-04  1.08675435E-04  1.59121919E-06  3.40903830E-06  6.02980163E-06  9.41865255E-06  1.05635463E-05  8.33998456E-06  3.11724405E-04  2.62629146E-06  1.78761775E-06  1.14652823E-06  7.80168989E-07  4.87597163E-07  3.26521530E-07  1.93053182E-07  1.53147056E-07  1.58924578E-07  4.93440384E-05  5.10405152E-05  4.93142652E-05  5.83374931E-05  4.81949573E-05  4.16385665E-05  3.76132011E-05  4.37962299E-05  4.56118214E-05  5.30580219E-05  6.23462620E-05  6.13466618E-05  7.49134779E-05  9.08250586E-05  7.61052099E-05  7.61052099E-05  7.61052099E-05  7.61052099E-05  7.61052099E-05  7.61052099E-05  7.61052099E-05  7.61052099E-05  7.61052099E-05  7.61052099E-05  7.61052099E-05  1.55922663E-07  1.68476333E-07  1.89297864E-07  3.26900044E-05  4.76852074E-05
      8.19339277E-07  7.04038314E-07  6.29418594E-07  1.10680397E-04  8.87941569E-05  8.14798987E-05  1.05210995E-04  9.83290884E-05  7.60782059E-05  3.94188610E-05  3.85703279E-05  4.00737190E-05  5.51788253E-05  5.34101382E-05  3.29309441E-05  2.77006566E-05  2.33262072E-05  1.96466699E-05  2.35309744E-05  7.61052099E-05  7.61052099E-05  7.61052099E-05  7.61052099E-05  7.61052099E-05  7.61052099E-05  7.61052099E-05  7.61052099E-05  7.61052099E-05  7.61052099E-05  7.61052099E-05  7.61052099E-05  7.61052099E-05  7.61052099E-05  7.61052099E-05  7.61052099E-05  7.61052099E-05  7.61052099E-05  7.61052099E-05  7.61052099E-05  7.61052099E-05  7.61052099E-05  7.61052099E-05  7.61052099E-05  7.61052099E-05  7.61052099E-05  7.61052099E-05  7.61052099E-05  7.61052099E-05  7.61052099E-05  7.61052099E-05  1.22785639E-06  1.12123939E-06  9.99851181E-07  8.05885975E-07  2.25565182E-05  2.12539180E-05  5.73753823E-07  5.76619357E-07  5.11246071E-07  4.48234601E-07  5.13651514E-07  3.44555592E-05  3.27602138E-05  3.82389061E-07  4.28104395E-05  3.95697280E-05  3.52816496E-05  1.77950810E-07  1.82630856E-07  2.15923777E-07  2.24550149E-07  2.15872404E-07  2.22161361E-07  2.63456172E-07  3.58981680E-07  4.39116803E-07  6.26542260E-07  9.18861531E-07  1.21999994E-06  1.72013824E-06  1.68369024E-06  2.08033589E-06  1.82725648E-06  1.41351870E-06  1.18145749E-06  8.49825085E-07  8.25709833E-07  8.06439459E-07  7.51151219E-07  7.94619627E-05  5.21759430E-05  6.08545197E-05  6.43449457E-05  6.97393716E-07  1.24266012E-06  2.98725649E-06  5.91071966E-06  8.29804412E-06  8.88721297E-06  7.22274945E-06  4.35230550E-06  2.39479823E-06  1.55357748E-06  1.04254036E-06  7.07183801E-07  3.97551162E-07  2.69292059E-07  1.79672909E-07  1.46473411E-07  1.59916922E-07  2.23225513E-07  1.89772563E-05  4.00242352E-05  4.33814785E-05  4.82802861E-05  4.70166560E-05  4.38359093E-05  5.70664706E-05  6.76998097E-05  8.72735982E-05  9.13065305E-05  9.17264988E-05  1.03278311E-04  6.26894107E-05  2.05735023E-06  7.61052099E-05  7.61052099E-05  7.61052099E-05  7.61052099E-05  7.61052099E-05  7.61052099E-05  7.61052099E-05  7.61052099E-05  7.61052099E-05  7.61052099E-05  1.96618728E-07  2.15560590E-07  2.21187875E-07  4.56757989E-05  6.41376173E-05
      7.47082254E-07  5.13716186E-05  4.73761138E-05  4.24985810E-05  8.81515443E-05  9.05595152E-05  9.05685665E-05  1.25124570E-04  7.62963173E-05  7.42627089E-05  4.16985713E-05  6.47123234E-05  5.10088103E-05  4.70147934E-05  3.62191859E-05  2.29104571E-05  2.13163075E-05  1.92391180E-05  2.20823240E-05  7.61052099E-05  7.61052099E-05  7.61052099E-05  7.61052099E-05  7.61052099E-05  7.61052099E-05  7.61052099E-05  7.61052099E-05  7.61052099E-05  7.61052099E-05  7.61052099E-05  7.61052099E-05  7.61052099E-05  7.61052099E-05  7.61052099E-05  7.61052099E-05  7.61052099E-05  7.61052099E-05  7.61052099E-05  7.61052099E-05  7.61052099E-05  7.61052099E-05  7.61052099E-05  7.61052099E-05  7.61052099E-05  7.61052099E-05  7.61052099E-05  7.61052099E-05  7.61052099E-05  7.61052099E-05  7.61052099E-05  7.61052099E-05  7.80771188E-07  7.38297217E-07  6.46518004E-07  5.66431538E-07  2.83740883E-05  2.47991247E-05  1.78516857E-05  3.23055701E-07  2.97594966E-07  1.87837159E-05  4.12973786E-05  2.00632985E-05  1.88123031E-05  4.01079124E-05  4.02758924E-05  4.20461838E-05  2.42705446E-05  2.11640618E-05  2.85395629E-07  2.70669375E-07  2.61922338E-07  2.87650124E-07  3.29571094E-07  4.41074747E-07  5.39045573E-07  7.00121745E-07  9.47666138E-07  1.41169460E-06  1.96349060E-06  2.56901444E-06  2.26125530E-06  1.94456038E-06  1.34897334E-06  1.09129462E-06  6.68086898E-07  5.82828761E-07  5.82513451E-07  2.99025360E-05  3.19933060E-05  3.64000916E-05  4.74260219E-07  4.34041027E-07  5.24265374E-07  9.51698212E-07  2.15784939E-06  4.23023084E-06  6.23993219E-06  6.76434502E-06  5.06469769E-06  3.21172183E-06  1.97487907E-06  1.38025848E-06  9.24669450E-07  6.07257789E-07  4.00477234E-07  2.65286843E-07  1.88869549E-07  1.71989839E-07  2.01466719E-07  2.69529011E-07  1.61640801E-05  2.41986127E-05  2.78497537E-05  3.03160741E-05  3.14280915E-05  4.15299328E-05  5.89129340E-05  9.33142946E-05  1.33211841E-04  1.27277832E-04  1.21086021E-04  1.02056532E-04  5.08067787E-05  2.21065534E-06  1.44701607E-06  7.61052099E-05  7.61052099E-05  7.61052099E-05  7.61052099E-05  7.61052099E-05  7.61052099E-05  7.61052099E-05  7.61052099E-05  7.61052099E-05  2.43848575E-07  2.43612249E-07  2.73771202E-05  5.80700071E-05  8.23466326E-05