# File generated by Flopy version 3.9.2 on 02/28/2025 at 14:11:02.
BEGIN options
END options

BEGIN packages
  DIS6  gwe-sim_test.dis  dis
  IC6  gwe-sim_test.ic  ic
  ADV6  gwe-sim_test.adv  adv
  CND6  gwe-sim_test.dsp  cnd
  EST6  gwe-sim_test.est  est
  SSM6  gwe-sim_test.ssm  ssm
  OC6  gwe-sim_test.oc  oc
  FMI6  gwe-sim_test.fmi  fmi
END packages

