# File generated by Flopy version 3.9.2 on 03/10/2025 at 10:33:00.
BEGIN options
  SAVE_FLOWS
  DENSITY_WATER    1000.00000000
  HEAT_CAPACITY_WATER    4186.00000000
  LATENT_HEAT_VAPORIZATION  2.26000000E+06
END options

BEGIN griddata
  porosity
    CONSTANT       0.20000000
  heat_capacity_solid
    CONSTANT     840.00000000
  density_solid
    CONSTANT    2500.00000000
END griddata

