# File generated by Flopy version 3.9.2 on 03/10/2025 at 10:33:00.
BEGIN options
END options

BEGIN griddata
  alh
    CONSTANT       1.00000000
  ath1
    CONSTANT       0.10000000
  ktw
    CONSTANT       0.56000000
  kts
    CONSTANT       2.50000000
END griddata

