# File generated by Flopy version 3.9.1 on 03/07/2025 at 13:13:08.
BEGIN options
  SAVE_FLOWS
END options

BEGIN sources
  CHD-1  AUX  TEMPERATURE
  CHD-2  AUX  TEMPERATURE
  WEL-INJ  AUX  TEMPERATURE
END sources

