# File generated by Flopy version 3.9.2 on 02/28/2025 at 14:11:02.
BEGIN options
  BUDGET  FILEOUT  gwe-sim_test.cbc
  TEMPERATURE  FILEOUT  gwe-sim_test.ucn
END options

BEGIN period  1
  SAVE  TEMPERATURE  ALL
  SAVE  BUDGET  LAST
  PRINT  BUDGET  LAST
END period  1

