# File generated by Flopy version 3.9.2 on 02/28/2025 at 14:11:02.
BEGIN options
  SCHEME  tvd
END options

