# File generated by Flopy version 3.9.2 on 02/28/2025 at 14:11:02.
BEGIN options
END options

BEGIN griddata
  alh
    CONSTANT       0.00000000
  ath1
    CONSTANT       0.00000000
  ktw
    CONSTANT       0.56000000
  kts
    CONSTANT       2.50000000
END griddata

