# File generated by Flopy version 3.9.2 on 03/10/2025 at 10:33:00.
BEGIN options
  SAVE_FLOWS
END options

BEGIN sources
  CHD-1  AUX  TEMPERATURE
  CHD-2  AUX  TEMPERATURE
  WEL-INJ  AUX  TEMPERATURE
END sources

