# File generated by Flopy version 3.9.2 on 02/28/2025 at 14:11:02.
BEGIN options
END options

BEGIN sources
  CHD-1  AUX  TEMPERATURE
  CHD-2  AUX  TEMPERATURE
END sources

