# File generated by Flopy version 3.9.2 on 02/28/2025 at 12:06:57.
BEGIN options
END options

BEGIN dimensions
  MAXBOUND  1
END dimensions

BEGIN period  1
  3 26 51      15.00000000
END period  1

