# File generated by Flopy version 3.9.2 on 03/06/2025 at 15:30:02.
BEGIN options
END options

BEGIN sources
  CHD-1  AUX  TEMPERATURE
  CHD-2  AUX  TEMPERATURE
END sources

