# File generated by Flopy version 3.9.1 on 03/07/2025 at 09:06:05.
BEGIN options
END options

BEGIN dimensions
  MAXBOUND  1
END dimensions

BEGIN period  1
  3 26 51       7.00000000
END period  1

