# File generated by Flopy version 3.9.2 on 02/28/2025 at 14:11:02.
BEGIN options
END options

BEGIN griddata
  strt
    CONSTANT      10.00000000
END griddata

