# File generated by Flopy version 3.9.2 on 03/10/2025 at 10:33:00.
BEGIN options
END options

BEGIN packages
  DIS6  gwe-sim_test.dis  dis
  IC6  gwe-sim_test.ic  ic
  ADV6  gwe-sim_test.adv  adv
  CND6  gwe-sim_test.dsp  cnd
  EST6  gwe-sim_test.est  est
  OC6  gwe-sim_test.oc  oc
  FMI6  gwe-sim_test.fmi  fmi
  SSM6  gwe-sim_test.ssm  ssm
END packages

