# File generated by Flopy version 3.9.2 on 03/06/2025 at 15:30:02.
BEGIN options
END options

BEGIN dimensions
  MAXBOUND  1
END dimensions

BEGIN period  1
  3 26 51       7.00000000
END period  1

