# File generated by Flopy version 3.9.1 on 03/07/2025 at 13:13:08.
BEGIN options
END options

BEGIN griddata
  strt
    CONSTANT      10.00000000
END griddata

