# File generated by Flopy version 3.9.2 on 03/06/2025 at 15:30:02.
BEGIN options
  SCHEME  tvd
END options

