# File generated by Flopy version 3.9.2 on 03/10/2025 at 10:33:00.
BEGIN options
END options

BEGIN griddata
  strt
    CONSTANT      10.00000000
END griddata

