# File generated by Flopy version 3.9.2 on 03/06/2025 at 15:30:02.
BEGIN options
END options

BEGIN griddata
  alh
    CONSTANT      10.00000000
  ath1
    CONSTANT       1.00000000
  ktw
    CONSTANT       0.56000000
  kts
    CONSTANT       2.50000000
END griddata

