# File generated by Flopy version 3.9.1 on 03/07/2025 at 13:13:08.
BEGIN options
END options

BEGIN packages
  DIS6  gwe-sim_test.dis  dis
  IC6  gwe-sim_test.ic  ic
  ADV6  gwe-sim_test.adv  adv
  CND6  gwe-sim_test.dsp  cnd
  EST6  gwe-sim_test.est  est
  SSM6  gwe-sim_test.ssm  ssm
  OC6  gwe-sim_test.oc  oc
  FMI6  gwe-sim_test.fmi  fmi
END packages

