# File generated by Flopy version 3.9.2 on 03/06/2025 at 15:30:02.
BEGIN options
END options

BEGIN packages
  DIS6  gwe-sim_test.dis  dis
  IC6  gwe-sim_test.ic  ic
  ADV6  gwe-sim_test.adv  adv
  CND6  gwe-sim_test.dsp  cnd
  EST6  gwe-sim_test.est  est
  CTP6  gwe-sim_test.ctp  ctp-1
  SSM6  gwe-sim_test.ssm  ssm
  OC6  gwe-sim_test.oc  oc
  FMI6  gwe-sim_test.fmi  fmi
END packages

