# File generated by Flopy version 3.9.2 on 03/06/2025 at 15:30:02.
BEGIN options
  TIME_UNITS  seconds
END options

BEGIN dimensions
  NPER  1
END dimensions

BEGIN perioddata
  8.64000000E+07  20       1.00000000
END perioddata

