# File generated by Flopy version 3.9.1 on 03/07/2025 at 13:13:08.
BEGIN options
  PRINT_OPTION  summary
  COMPLEXITY  moderate
END options

