# File generated by Flopy version 3.9.2 on 02/28/2025 at 14:11:02.
BEGIN options
  TIME_UNITS  seconds
END options

BEGIN dimensions
  NPER  1
END dimensions

BEGIN perioddata
  8.64000000E+06  5       1.00000000
END perioddata

