# File generated by Flopy version 3.9.1 on 03/07/2025 at 13:13:08.
BEGIN options
  TIME_UNITS  seconds
END options

BEGIN dimensions
  NPER  1
END dimensions

BEGIN perioddata
  8.64000000E+07  100       1.00000000
END perioddata

