# File generated by Flopy version 3.9.2 on 03/10/2025 at 10:33:00.
BEGIN options
  PRINT_OPTION  summary
  COMPLEXITY  moderate
END options

